<routes>
<vType id="car" vClass="passenger" accel="2.6" decel="4.5" sigma="0.5" length="5.0" maxSpeed="13.9"/>
<vType id="motorcycle" vClass="motorcycle" accel="3.0" decel="5.0" sigma="0.5" length="2.0" maxSpeed="14.0"/>
<vType id="truck" vClass="truck" accel="1.2" decel="3.5" sigma="0.5" length="12.0" maxSpeed="10.0"/>

  <flow id="car_222682222#1_193253427#0_00065368" type="car" begin="0" end="3600" vehsPerHour="37.08" departLane="best" departPos="random" departSpeed="0" from="222682222#1" to="193253427#0"/>
  <flow id="car_222682222#1_198876043#0_00065368" type="car" begin="0" end="3600" vehsPerHour="30.37" departLane="best" departPos="random" departSpeed="0" from="222682222#1" to="198876043#0"/>
  <flow id="car_222682222#1_28231434_00065368" type="car" begin="0" end="3600" vehsPerHour="31.93" departLane="best" departPos="random" departSpeed="0" from="222682222#1" to="28231434"/>
  <flow id="car_222682222#1_23241821#0_00065368" type="car" begin="0" end="3600" vehsPerHour="25.33" departLane="best" departPos="random" departSpeed="0" from="222682222#1" to="23241821#0"/>
  <flow id="car_222682222#1_198876042#0_00065368" type="car" begin="0" end="3600" vehsPerHour="21.03" departLane="best" departPos="random" departSpeed="0" from="222682222#1" to="198876042#0"/>
  <flow id="motorcycle_222682222#1_193253427#0_00065368" type="motorcycle" begin="0" end="3600" vehsPerHour="107.88" departLane="best" departPos="random" departSpeed="0" from="222682222#1" to="193253427#0"/>
  <flow id="motorcycle_222682222#1_198876043#0_00065368" type="motorcycle" begin="0" end="3600" vehsPerHour="92.59" departLane="best" departPos="random" departSpeed="0" from="222682222#1" to="198876043#0"/>
  <flow id="motorcycle_222682222#1_28231434_00065368" type="motorcycle" begin="0" end="3600" vehsPerHour="83.12" departLane="best" departPos="random" departSpeed="0" from="222682222#1" to="28231434"/>
  <flow id="motorcycle_222682222#1_23241821#0_00065368" type="motorcycle" begin="0" end="3600" vehsPerHour="71.41" departLane="best" departPos="random" departSpeed="0" from="222682222#1" to="23241821#0"/>
  <flow id="motorcycle_222682222#1_198876042#0_00065368" type="motorcycle" begin="0" end="3600" vehsPerHour="60.76" departLane="best" departPos="random" departSpeed="0" from="222682222#1" to="198876042#0"/>
  <flow id="car_193253433#2_198876043#0_00065368" type="car" begin="0" end="3600" vehsPerHour="26.11" departLane="best" departPos="random" departSpeed="0" from="193253433#2" to="198876043#0"/>
  <flow id="car_193253433#2_28231434_00065368" type="car" begin="0" end="3600" vehsPerHour="20.29" departLane="best" departPos="random" departSpeed="0" from="193253433#2" to="28231434"/>
  <flow id="car_193253433#2_23241821#0_00065368" type="car" begin="0" end="3600" vehsPerHour="19.86" departLane="best" departPos="random" departSpeed="0" from="193253433#2" to="23241821#0"/>
  <flow id="car_193253433#2_198876042#0_00065368" type="car" begin="0" end="3600" vehsPerHour="15.99" departLane="best" departPos="random" departSpeed="0" from="193253433#2" to="198876042#0"/>
  <flow id="car_193253433#2_193253427#0_00065368" type="car" begin="0" end="3600" vehsPerHour="13.92" departLane="best" departPos="random" departSpeed="0" from="193253433#2" to="193253427#0"/>
  <flow id="motorcycle_193253433#2_198876043#0_00065368" type="motorcycle" begin="0" end="3600" vehsPerHour="73.43" departLane="best" departPos="random" departSpeed="0" from="193253433#2" to="198876043#0"/>
  <flow id="motorcycle_193253433#2_28231434_00065368" type="motorcycle" begin="0" end="3600" vehsPerHour="62.23" departLane="best" departPos="random" departSpeed="0" from="193253433#2" to="28231434"/>
  <flow id="motorcycle_193253433#2_23241821#0_00065368" type="motorcycle" begin="0" end="3600" vehsPerHour="59.87" departLane="best" departPos="random" departSpeed="0" from="193253433#2" to="23241821#0"/>
  <flow id="motorcycle_193253433#2_198876042#0_00065368" type="motorcycle" begin="0" end="3600" vehsPerHour="48.64" departLane="best" departPos="random" departSpeed="0" from="193253433#2" to="198876042#0"/>
  <flow id="motorcycle_193253433#2_193253427#0_00065368" type="motorcycle" begin="0" end="3600" vehsPerHour="41.74" departLane="best" departPos="random" departSpeed="0" from="193253433#2" to="193253427#0"/>
  <flow id="car_198876045#1_28231434_00065368" type="car" begin="0" end="3600" vehsPerHour="20.01" departLane="best" departPos="random" departSpeed="0" from="198876045#1" to="28231434"/>
  <flow id="car_198876045#1_23241821#0_00065368" type="car" begin="0" end="3600" vehsPerHour="18.90" departLane="best" departPos="random" departSpeed="0" from="198876045#1" to="23241821#0"/>
  <flow id="car_198876045#1_198876042#0_00065368" type="car" begin="0" end="3600" vehsPerHour="16.45" departLane="best" departPos="random" departSpeed="0" from="198876045#1" to="198876042#0"/>
  <flow id="car_198876045#1_193253427#0_00065368" type="car" begin="0" end="3600" vehsPerHour="14.29" departLane="best" departPos="random" departSpeed="0" from="198876045#1" to="193253427#0"/>
  <flow id="car_198876045#1_198876043#2_00065368" type="car" begin="0" end="3600" vehsPerHour="12.32" departLane="best" departPos="random" departSpeed="0" from="198876045#1" to="198876043#2"/>
  <flow id="motorcycle_198876045#1_28231434_00065368" type="motorcycle" begin="0" end="3600" vehsPerHour="64.28" departLane="best" departPos="random" departSpeed="0" from="198876045#1" to="28231434"/>
  <flow id="motorcycle_198876045#1_23241821#0_00065368" type="motorcycle" begin="0" end="3600" vehsPerHour="53.27" departLane="best" departPos="random" departSpeed="0" from="198876045#1" to="23241821#0"/>
  <flow id="motorcycle_198876045#1_198876042#0_00065368" type="motorcycle" begin="0" end="3600" vehsPerHour="49.66" departLane="best" departPos="random" departSpeed="0" from="198876045#1" to="198876042#0"/>
  <flow id="motorcycle_198876045#1_193253427#0_00065368" type="motorcycle" begin="0" end="3600" vehsPerHour="46.19" departLane="best" departPos="random" departSpeed="0" from="198876045#1" to="193253427#0"/>
  <flow id="motorcycle_198876045#1_198876043#2_00065368" type="motorcycle" begin="0" end="3600" vehsPerHour="43.06" departLane="best" departPos="random" departSpeed="0" from="198876045#1" to="198876043#2"/>
  <flow id="car_-28231434_23241821#0_00065368" type="car" begin="0" end="3600" vehsPerHour="13.97" departLane="best" departPos="random" departSpeed="0" from="-28231434" to="23241821#0"/>
  <flow id="car_-28231434_198876042#0_00065368" type="car" begin="0" end="3600" vehsPerHour="12.10" departLane="best" departPos="random" departSpeed="0" from="-28231434" to="198876042#0"/>
  <flow id="car_-28231434_193253427#0_00065368" type="car" begin="0" end="3600" vehsPerHour="9.90" departLane="best" departPos="random" departSpeed="0" from="-28231434" to="193253427#0"/>
  <flow id="car_-28231434_198876043#2_00065368" type="car" begin="0" end="3600" vehsPerHour="10.51" departLane="best" departPos="random" departSpeed="0" from="-28231434" to="198876043#2"/>
  <flow id="car_-28231434_28231434_00065368" type="car" begin="0" end="3600" vehsPerHour="8.37" departLane="best" departPos="random" departSpeed="0" from="-28231434" to="28231434"/>
  <flow id="motorcycle_-28231434_23241821#0_00065368" type="motorcycle" begin="0" end="3600" vehsPerHour="40.91" departLane="best" departPos="random" departSpeed="0" from="-28231434" to="23241821#0"/>
  <flow id="motorcycle_-28231434_198876042#0_00065368" type="motorcycle" begin="0" end="3600" vehsPerHour="37.73" departLane="best" departPos="random" departSpeed="0" from="-28231434" to="198876042#0"/>
  <flow id="motorcycle_-28231434_193253427#0_00065368" type="motorcycle" begin="0" end="3600" vehsPerHour="32.00" departLane="best" departPos="random" departSpeed="0" from="-28231434" to="193253427#0"/>
  <flow id="motorcycle_-28231434_198876043#2_00065368" type="motorcycle" begin="0" end="3600" vehsPerHour="28.70" departLane="best" departPos="random" departSpeed="0" from="-28231434" to="198876043#2"/>
  <flow id="motorcycle_-28231434_28231434_00065368" type="motorcycle" begin="0" end="3600" vehsPerHour="23.69" departLane="best" departPos="random" departSpeed="0" from="-28231434" to="28231434"/>
  <flow id="car_-55029244#0_198876042#0_00065368" type="car" begin="0" end="3600" vehsPerHour="15.83" departLane="best" departPos="random" departSpeed="0" from="-55029244#0" to="198876042#0"/>
  <flow id="car_-55029244#0_193253427#0_00065368" type="car" begin="0" end="3600" vehsPerHour="13.98" departLane="best" departPos="random" departSpeed="0" from="-55029244#0" to="193253427#0"/>
  <flow id="car_-55029244#0_198876043#2_00065368" type="car" begin="0" end="3600" vehsPerHour="12.34" departLane="best" departPos="random" departSpeed="0" from="-55029244#0" to="198876043#2"/>
  <flow id="car_-55029244#0_28231434_00065368" type="car" begin="0" end="3600" vehsPerHour="9.85" departLane="best" departPos="random" departSpeed="0" from="-55029244#0" to="28231434"/>
  <flow id="car_-55029244#0_23241821#0_00065368" type="car" begin="0" end="3600" vehsPerHour="8.14" departLane="best" departPos="random" departSpeed="0" from="-55029244#0" to="23241821#0"/>
  <flow id="motorcycle_-55029244#0_198876042#0_00065368" type="motorcycle" begin="0" end="3600" vehsPerHour="49.37" departLane="best" departPos="random" departSpeed="0" from="-55029244#0" to="198876042#0"/>
  <flow id="motorcycle_-55029244#0_193253427#0_00065368" type="motorcycle" begin="0" end="3600" vehsPerHour="39.70" departLane="best" departPos="random" departSpeed="0" from="-55029244#0" to="193253427#0"/>
  <flow id="motorcycle_-55029244#0_198876043#2_00065368" type="motorcycle" begin="0" end="3600" vehsPerHour="36.07" departLane="best" departPos="random" departSpeed="0" from="-55029244#0" to="198876043#2"/>
  <flow id="motorcycle_-55029244#0_28231434_00065368" type="motorcycle" begin="0" end="3600" vehsPerHour="32.48" departLane="best" departPos="random" departSpeed="0" from="-55029244#0" to="28231434"/>
  <flow id="motorcycle_-55029244#0_23241821#0_00065368" type="motorcycle" begin="0" end="3600" vehsPerHour="30.42" departLane="best" departPos="random" departSpeed="0" from="-55029244#0" to="23241821#0"/>
  <flow id="car_34241530#0_198876042#0_00065368" type="car" begin="0" end="3600" vehsPerHour="17.07" departLane="best" departPos="random" departSpeed="0" from="34241530#0" to="198876042#0"/>
  <flow id="car_34241530#0_193253427#0_00065368" type="car" begin="0" end="3600" vehsPerHour="14.48" departLane="best" departPos="random" departSpeed="0" from="34241530#0" to="193253427#0"/>
  <flow id="car_34241530#0_198876043#2_00065368" type="car" begin="0" end="3600" vehsPerHour="12.54" departLane="best" departPos="random" departSpeed="0" from="34241530#0" to="198876043#2"/>
  <flow id="car_34241530#0_28231434_00065368" type="car" begin="0" end="3600" vehsPerHour="10.85" departLane="best" departPos="random" departSpeed="0" from="34241530#0" to="28231434"/>
  <flow id="car_34241530#0_23241821#0_00065368" type="car" begin="0" end="3600" vehsPerHour="7.96" departLane="best" departPos="random" departSpeed="0" from="34241530#0" to="23241821#0"/>
  <flow id="motorcycle_34241530#0_198876042#0_00065368" type="motorcycle" begin="0" end="3600" vehsPerHour="49.54" departLane="best" departPos="random" departSpeed="0" from="34241530#0" to="198876042#0"/>
  <flow id="motorcycle_34241530#0_193253427#0_00065368" type="motorcycle" begin="0" end="3600" vehsPerHour="40.32" departLane="best" departPos="random" departSpeed="0" from="34241530#0" to="193253427#0"/>
  <flow id="motorcycle_34241530#0_198876043#2_00065368" type="motorcycle" begin="0" end="3600" vehsPerHour="35.91" departLane="best" departPos="random" departSpeed="0" from="34241530#0" to="198876043#2"/>
  <flow id="motorcycle_34241530#0_28231434_00065368" type="motorcycle" begin="0" end="3600" vehsPerHour="33.61" departLane="best" departPos="random" departSpeed="0" from="34241530#0" to="28231434"/>
  <flow id="motorcycle_34241530#0_23241821#0_00065368" type="motorcycle" begin="0" end="3600" vehsPerHour="29.73" departLane="best" departPos="random" departSpeed="0" from="34241530#0" to="23241821#0"/>
  <flow id="truck_34241530#0_198876042#0_00065368" type="truck" begin="0" end="3600" vehsPerHour="7.36" departLane="best" departPos="random" departSpeed="0" from="34241530#0" to="198876042#0"/>
</routes>
