<routes>
<vType id="car" vClass="passenger" accel="2.6" decel="4.5" sigma="0.5" length="5.0" maxSpeed="13.9"/>
<vType id="motorcycle" vClass="motorcycle" accel="3.0" decel="5.0" sigma="0.5" length="2.0" maxSpeed="14.0"/>
<vType id="truck" vClass="truck" accel="1.2" decel="3.5" sigma="0.5" length="12.0" maxSpeed="10.0"/>

  <flow id="car_222682222#1_193253427#0_0001f587" type="car" begin="0" end="3600" vehsPerHour="36.34" departLane="best" departPos="random" departSpeed="0" from="222682222#1" to="193253427#0"/>
  <flow id="car_222682222#1_198876043#0_0001f587" type="car" begin="0" end="3600" vehsPerHour="29.60" departLane="best" departPos="random" departSpeed="0" from="222682222#1" to="198876043#0"/>
  <flow id="car_222682222#1_28231434_0001f587" type="car" begin="0" end="3600" vehsPerHour="29.77" departLane="best" departPos="random" departSpeed="0" from="222682222#1" to="28231434"/>
  <flow id="car_222682222#1_23241821#0_0001f587" type="car" begin="0" end="3600" vehsPerHour="24.19" departLane="best" departPos="random" departSpeed="0" from="222682222#1" to="23241821#0"/>
  <flow id="car_222682222#1_198876042#0_0001f587" type="car" begin="0" end="3600" vehsPerHour="21.76" departLane="best" departPos="random" departSpeed="0" from="222682222#1" to="198876042#0"/>
  <flow id="motorcycle_222682222#1_193253427#0_0001f587" type="motorcycle" begin="0" end="3600" vehsPerHour="103.86" departLane="best" departPos="random" departSpeed="0" from="222682222#1" to="193253427#0"/>
  <flow id="motorcycle_222682222#1_198876043#0_0001f587" type="motorcycle" begin="0" end="3600" vehsPerHour="96.17" departLane="best" departPos="random" departSpeed="0" from="222682222#1" to="198876043#0"/>
  <flow id="motorcycle_222682222#1_28231434_0001f587" type="motorcycle" begin="0" end="3600" vehsPerHour="83.33" departLane="best" departPos="random" departSpeed="0" from="222682222#1" to="28231434"/>
  <flow id="motorcycle_222682222#1_23241821#0_0001f587" type="motorcycle" begin="0" end="3600" vehsPerHour="72.41" departLane="best" departPos="random" departSpeed="0" from="222682222#1" to="23241821#0"/>
  <flow id="motorcycle_222682222#1_198876042#0_0001f587" type="motorcycle" begin="0" end="3600" vehsPerHour="62.56" departLane="best" departPos="random" departSpeed="0" from="222682222#1" to="198876042#0"/>
  <flow id="car_193253433#2_198876043#0_0001f587" type="car" begin="0" end="3600" vehsPerHour="25.12" departLane="best" departPos="random" departSpeed="0" from="193253433#2" to="198876043#0"/>
  <flow id="car_193253433#2_28231434_0001f587" type="car" begin="0" end="3600" vehsPerHour="20.95" departLane="best" departPos="random" departSpeed="0" from="193253433#2" to="28231434"/>
  <flow id="car_193253433#2_23241821#0_0001f587" type="car" begin="0" end="3600" vehsPerHour="21.50" departLane="best" departPos="random" departSpeed="0" from="193253433#2" to="23241821#0"/>
  <flow id="car_193253433#2_198876042#0_0001f587" type="car" begin="0" end="3600" vehsPerHour="16.58" departLane="best" departPos="random" departSpeed="0" from="193253433#2" to="198876042#0"/>
  <flow id="car_193253433#2_193253427#0_0001f587" type="car" begin="0" end="3600" vehsPerHour="14.31" departLane="best" departPos="random" departSpeed="0" from="193253433#2" to="193253427#0"/>
  <flow id="motorcycle_193253433#2_198876043#0_0001f587" type="motorcycle" begin="0" end="3600" vehsPerHour="67.11" departLane="best" departPos="random" departSpeed="0" from="193253433#2" to="198876043#0"/>
  <flow id="motorcycle_193253433#2_28231434_0001f587" type="motorcycle" begin="0" end="3600" vehsPerHour="59.89" departLane="best" departPos="random" departSpeed="0" from="193253433#2" to="28231434"/>
  <flow id="motorcycle_193253433#2_23241821#0_0001f587" type="motorcycle" begin="0" end="3600" vehsPerHour="58.32" departLane="best" departPos="random" departSpeed="0" from="193253433#2" to="23241821#0"/>
  <flow id="motorcycle_193253433#2_198876042#0_0001f587" type="motorcycle" begin="0" end="3600" vehsPerHour="50.28" departLane="best" departPos="random" departSpeed="0" from="193253433#2" to="198876042#0"/>
  <flow id="motorcycle_193253433#2_193253427#0_0001f587" type="motorcycle" begin="0" end="3600" vehsPerHour="43.06" departLane="best" departPos="random" departSpeed="0" from="193253433#2" to="193253427#0"/>
  <flow id="car_198876045#1_28231434_0001f587" type="car" begin="0" end="3600" vehsPerHour="21.45" departLane="best" departPos="random" departSpeed="0" from="198876045#1" to="28231434"/>
  <flow id="car_198876045#1_23241821#0_0001f587" type="car" begin="0" end="3600" vehsPerHour="17.73" departLane="best" departPos="random" departSpeed="0" from="198876045#1" to="23241821#0"/>
  <flow id="car_198876045#1_198876042#0_0001f587" type="car" begin="0" end="3600" vehsPerHour="17.28" departLane="best" departPos="random" departSpeed="0" from="198876045#1" to="198876042#0"/>
  <flow id="car_198876045#1_193253427#0_0001f587" type="car" begin="0" end="3600" vehsPerHour="14.03" departLane="best" departPos="random" departSpeed="0" from="198876045#1" to="193253427#0"/>
  <flow id="car_198876045#1_198876043#2_0001f587" type="car" begin="0" end="3600" vehsPerHour="12.33" departLane="best" departPos="random" departSpeed="0" from="198876045#1" to="198876043#2"/>
  <flow id="motorcycle_198876045#1_28231434_0001f587" type="motorcycle" begin="0" end="3600" vehsPerHour="60.18" departLane="best" departPos="random" departSpeed="0" from="198876045#1" to="28231434"/>
  <flow id="motorcycle_198876045#1_23241821#0_0001f587" type="motorcycle" begin="0" end="3600" vehsPerHour="53.11" departLane="best" departPos="random" departSpeed="0" from="198876045#1" to="23241821#0"/>
  <flow id="motorcycle_198876045#1_198876042#0_0001f587" type="motorcycle" begin="0" end="3600" vehsPerHour="49.23" departLane="best" departPos="random" departSpeed="0" from="198876045#1" to="198876042#0"/>
  <flow id="motorcycle_198876045#1_193253427#0_0001f587" type="motorcycle" begin="0" end="3600" vehsPerHour="44.62" departLane="best" departPos="random" departSpeed="0" from="198876045#1" to="193253427#0"/>
  <flow id="motorcycle_198876045#1_198876043#2_0001f587" type="motorcycle" begin="0" end="3600" vehsPerHour="40.22" departLane="best" departPos="random" departSpeed="0" from="198876045#1" to="198876043#2"/>
  <flow id="car_-28231434_23241821#0_0001f587" type="car" begin="0" end="3600" vehsPerHour="14.16" departLane="best" departPos="random" departSpeed="0" from="-28231434" to="23241821#0"/>
  <flow id="car_-28231434_198876042#0_0001f587" type="car" begin="0" end="3600" vehsPerHour="12.29" departLane="best" departPos="random" departSpeed="0" from="-28231434" to="198876042#0"/>
  <flow id="car_-28231434_193253427#0_0001f587" type="car" begin="0" end="3600" vehsPerHour="10.76" departLane="best" departPos="random" departSpeed="0" from="-28231434" to="193253427#0"/>
  <flow id="car_-28231434_198876043#2_0001f587" type="car" begin="0" end="3600" vehsPerHour="10.64" departLane="best" departPos="random" departSpeed="0" from="-28231434" to="198876043#2"/>
  <flow id="car_-28231434_28231434_0001f587" type="car" begin="0" end="3600" vehsPerHour="7.95" departLane="best" departPos="random" departSpeed="0" from="-28231434" to="28231434"/>
  <flow id="motorcycle_-28231434_23241821#0_0001f587" type="motorcycle" begin="0" end="3600" vehsPerHour="40.88" departLane="best" departPos="random" departSpeed="0" from="-28231434" to="23241821#0"/>
  <flow id="motorcycle_-28231434_198876042#0_0001f587" type="motorcycle" begin="0" end="3600" vehsPerHour="37.10" departLane="best" departPos="random" departSpeed="0" from="-28231434" to="198876042#0"/>
  <flow id="motorcycle_-28231434_193253427#0_0001f587" type="motorcycle" begin="0" end="3600" vehsPerHour="31.55" departLane="best" departPos="random" departSpeed="0" from="-28231434" to="193253427#0"/>
  <flow id="motorcycle_-28231434_198876043#2_0001f587" type="motorcycle" begin="0" end="3600" vehsPerHour="29.61" departLane="best" departPos="random" departSpeed="0" from="-28231434" to="198876043#2"/>
  <flow id="motorcycle_-28231434_28231434_0001f587" type="motorcycle" begin="0" end="3600" vehsPerHour="25.96" departLane="best" departPos="random" departSpeed="0" from="-28231434" to="28231434"/>
  <flow id="car_-55029244#0_198876042#0_0001f587" type="car" begin="0" end="3600" vehsPerHour="16.88" departLane="best" departPos="random" departSpeed="0" from="-55029244#0" to="198876042#0"/>
  <flow id="car_-55029244#0_193253427#0_0001f587" type="car" begin="0" end="3600" vehsPerHour="13.84" departLane="best" departPos="random" departSpeed="0" from="-55029244#0" to="193253427#0"/>
  <flow id="car_-55029244#0_198876043#2_0001f587" type="car" begin="0" end="3600" vehsPerHour="12.97" departLane="best" departPos="random" departSpeed="0" from="-55029244#0" to="198876043#2"/>
  <flow id="car_-55029244#0_28231434_0001f587" type="car" begin="0" end="3600" vehsPerHour="9.88" departLane="best" departPos="random" departSpeed="0" from="-55029244#0" to="28231434"/>
  <flow id="car_-55029244#0_23241821#0_0001f587" type="car" begin="0" end="3600" vehsPerHour="8.01" departLane="best" departPos="random" departSpeed="0" from="-55029244#0" to="23241821#0"/>
  <flow id="motorcycle_-55029244#0_198876042#0_0001f587" type="motorcycle" begin="0" end="3600" vehsPerHour="50.16" departLane="best" departPos="random" departSpeed="0" from="-55029244#0" to="198876042#0"/>
  <flow id="motorcycle_-55029244#0_193253427#0_0001f587" type="motorcycle" begin="0" end="3600" vehsPerHour="39.58" departLane="best" departPos="random" departSpeed="0" from="-55029244#0" to="193253427#0"/>
  <flow id="motorcycle_-55029244#0_198876043#2_0001f587" type="motorcycle" begin="0" end="3600" vehsPerHour="35.72" departLane="best" departPos="random" departSpeed="0" from="-55029244#0" to="198876043#2"/>
  <flow id="motorcycle_-55029244#0_28231434_0001f587" type="motorcycle" begin="0" end="3600" vehsPerHour="34.47" departLane="best" departPos="random" departSpeed="0" from="-55029244#0" to="28231434"/>
  <flow id="motorcycle_-55029244#0_23241821#0_0001f587" type="motorcycle" begin="0" end="3600" vehsPerHour="27.81" departLane="best" departPos="random" departSpeed="0" from="-55029244#0" to="23241821#0"/>
  <flow id="car_34241530#0_198876042#0_0001f587" type="car" begin="0" end="3600" vehsPerHour="16.10" departLane="best" departPos="random" departSpeed="0" from="34241530#0" to="198876042#0"/>
  <flow id="car_34241530#0_193253427#0_0001f587" type="car" begin="0" end="3600" vehsPerHour="14.62" departLane="best" departPos="random" departSpeed="0" from="34241530#0" to="193253427#0"/>
  <flow id="car_34241530#0_198876043#2_0001f587" type="car" begin="0" end="3600" vehsPerHour="12.03" departLane="best" departPos="random" departSpeed="0" from="34241530#0" to="198876043#2"/>
  <flow id="car_34241530#0_28231434_0001f587" type="car" begin="0" end="3600" vehsPerHour="10.12" departLane="best" departPos="random" departSpeed="0" from="34241530#0" to="28231434"/>
  <flow id="car_34241530#0_23241821#0_0001f587" type="car" begin="0" end="3600" vehsPerHour="8.45" departLane="best" departPos="random" departSpeed="0" from="34241530#0" to="23241821#0"/>
  <flow id="motorcycle_34241530#0_198876042#0_0001f587" type="motorcycle" begin="0" end="3600" vehsPerHour="50.92" departLane="best" departPos="random" departSpeed="0" from="34241530#0" to="198876042#0"/>
  <flow id="motorcycle_34241530#0_193253427#0_0001f587" type="motorcycle" begin="0" end="3600" vehsPerHour="39.46" departLane="best" departPos="random" departSpeed="0" from="34241530#0" to="193253427#0"/>
  <flow id="motorcycle_34241530#0_198876043#2_0001f587" type="motorcycle" begin="0" end="3600" vehsPerHour="35.76" departLane="best" departPos="random" departSpeed="0" from="34241530#0" to="198876043#2"/>
  <flow id="motorcycle_34241530#0_28231434_0001f587" type="motorcycle" begin="0" end="3600" vehsPerHour="34.26" departLane="best" departPos="random" departSpeed="0" from="34241530#0" to="28231434"/>
  <flow id="motorcycle_34241530#0_23241821#0_0001f587" type="motorcycle" begin="0" end="3600" vehsPerHour="28.58" departLane="best" departPos="random" departSpeed="0" from="34241530#0" to="23241821#0"/>
  <flow id="truck_34241530#0_198876042#0_0001f587" type="truck" begin="0" end="3600" vehsPerHour="7.50" departLane="best" departPos="random" departSpeed="0" from="34241530#0" to="198876042#0"/>
</routes>
