<routes>
<vType id="car" vClass="passenger" accel="2.6" decel="4.5" sigma="0.5" length="5.0" maxSpeed="13.9"/>
<vType id="motorcycle" vClass="motorcycle" accel="3.0" decel="5.0" sigma="0.5" length="2.0" maxSpeed="14.0"/>
<vType id="truck" vClass="truck" accel="1.2" decel="3.5" sigma="0.5" length="12.0" maxSpeed="10.0"/>

  <flow id="car_222682222#1_193253427#0_00072fa7" type="car" begin="0" end="3600" vehsPerHour="37.57" departLane="best" departPos="random" departSpeed="0" from="222682222#1" to="193253427#0"/>
  <flow id="car_222682222#1_198876043#0_00072fa7" type="car" begin="0" end="3600" vehsPerHour="30.83" departLane="best" departPos="random" departSpeed="0" from="222682222#1" to="198876043#0"/>
  <flow id="car_222682222#1_28231434_00072fa7" type="car" begin="0" end="3600" vehsPerHour="31.01" departLane="best" departPos="random" departSpeed="0" from="222682222#1" to="28231434"/>
  <flow id="car_222682222#1_23241821#0_00072fa7" type="car" begin="0" end="3600" vehsPerHour="25.69" departLane="best" departPos="random" departSpeed="0" from="222682222#1" to="23241821#0"/>
  <flow id="car_222682222#1_198876042#0_00072fa7" type="car" begin="0" end="3600" vehsPerHour="21.58" departLane="best" departPos="random" departSpeed="0" from="222682222#1" to="198876042#0"/>
  <flow id="motorcycle_222682222#1_193253427#0_00072fa7" type="motorcycle" begin="0" end="3600" vehsPerHour="109.63" departLane="best" departPos="random" departSpeed="0" from="222682222#1" to="193253427#0"/>
  <flow id="motorcycle_222682222#1_198876043#0_00072fa7" type="motorcycle" begin="0" end="3600" vehsPerHour="93.65" departLane="best" departPos="random" departSpeed="0" from="222682222#1" to="198876043#0"/>
  <flow id="motorcycle_222682222#1_28231434_00072fa7" type="motorcycle" begin="0" end="3600" vehsPerHour="88.07" departLane="best" departPos="random" departSpeed="0" from="222682222#1" to="28231434"/>
  <flow id="motorcycle_222682222#1_23241821#0_00072fa7" type="motorcycle" begin="0" end="3600" vehsPerHour="72.44" departLane="best" departPos="random" departSpeed="0" from="222682222#1" to="23241821#0"/>
  <flow id="motorcycle_222682222#1_198876042#0_00072fa7" type="motorcycle" begin="0" end="3600" vehsPerHour="62.85" departLane="best" departPos="random" departSpeed="0" from="222682222#1" to="198876042#0"/>
  <flow id="car_193253433#2_198876043#0_00072fa7" type="car" begin="0" end="3600" vehsPerHour="25.80" departLane="best" departPos="random" departSpeed="0" from="193253433#2" to="198876043#0"/>
  <flow id="car_193253433#2_28231434_00072fa7" type="car" begin="0" end="3600" vehsPerHour="20.85" departLane="best" departPos="random" departSpeed="0" from="193253433#2" to="28231434"/>
  <flow id="car_193253433#2_23241821#0_00072fa7" type="car" begin="0" end="3600" vehsPerHour="19.81" departLane="best" departPos="random" departSpeed="0" from="193253433#2" to="23241821#0"/>
  <flow id="car_193253433#2_198876042#0_00072fa7" type="car" begin="0" end="3600" vehsPerHour="15.99" departLane="best" departPos="random" departSpeed="0" from="193253433#2" to="198876042#0"/>
  <flow id="car_193253433#2_193253427#0_00072fa7" type="car" begin="0" end="3600" vehsPerHour="15.13" departLane="best" departPos="random" departSpeed="0" from="193253433#2" to="193253427#0"/>
  <flow id="motorcycle_193253433#2_198876043#0_00072fa7" type="motorcycle" begin="0" end="3600" vehsPerHour="71.39" departLane="best" departPos="random" departSpeed="0" from="193253433#2" to="198876043#0"/>
  <flow id="motorcycle_193253433#2_28231434_00072fa7" type="motorcycle" begin="0" end="3600" vehsPerHour="59.93" departLane="best" departPos="random" departSpeed="0" from="193253433#2" to="28231434"/>
  <flow id="motorcycle_193253433#2_23241821#0_00072fa7" type="motorcycle" begin="0" end="3600" vehsPerHour="60.01" departLane="best" departPos="random" departSpeed="0" from="193253433#2" to="23241821#0"/>
  <flow id="motorcycle_193253433#2_198876042#0_00072fa7" type="motorcycle" begin="0" end="3600" vehsPerHour="52.24" departLane="best" departPos="random" departSpeed="0" from="193253433#2" to="198876042#0"/>
  <flow id="motorcycle_193253433#2_193253427#0_00072fa7" type="motorcycle" begin="0" end="3600" vehsPerHour="41.52" departLane="best" departPos="random" departSpeed="0" from="193253433#2" to="193253427#0"/>
  <flow id="car_198876045#1_28231434_00072fa7" type="car" begin="0" end="3600" vehsPerHour="20.71" departLane="best" departPos="random" departSpeed="0" from="198876045#1" to="28231434"/>
  <flow id="car_198876045#1_23241821#0_00072fa7" type="car" begin="0" end="3600" vehsPerHour="18.61" departLane="best" departPos="random" departSpeed="0" from="198876045#1" to="23241821#0"/>
  <flow id="car_198876045#1_198876042#0_00072fa7" type="car" begin="0" end="3600" vehsPerHour="17.27" departLane="best" departPos="random" departSpeed="0" from="198876045#1" to="198876042#0"/>
  <flow id="car_198876045#1_193253427#0_00072fa7" type="car" begin="0" end="3600" vehsPerHour="13.94" departLane="best" departPos="random" departSpeed="0" from="198876045#1" to="193253427#0"/>
  <flow id="car_198876045#1_198876043#2_00072fa7" type="car" begin="0" end="3600" vehsPerHour="12.11" departLane="best" departPos="random" departSpeed="0" from="198876045#1" to="198876043#2"/>
  <flow id="motorcycle_198876045#1_28231434_00072fa7" type="motorcycle" begin="0" end="3600" vehsPerHour="62.09" departLane="best" departPos="random" departSpeed="0" from="198876045#1" to="28231434"/>
  <flow id="motorcycle_198876045#1_23241821#0_00072fa7" type="motorcycle" begin="0" end="3600" vehsPerHour="53.29" departLane="best" departPos="random" departSpeed="0" from="198876045#1" to="23241821#0"/>
  <flow id="motorcycle_198876045#1_198876042#0_00072fa7" type="motorcycle" begin="0" end="3600" vehsPerHour="51.92" departLane="best" departPos="random" departSpeed="0" from="198876045#1" to="198876042#0"/>
  <flow id="motorcycle_198876045#1_193253427#0_00072fa7" type="motorcycle" begin="0" end="3600" vehsPerHour="47.27" departLane="best" departPos="random" departSpeed="0" from="198876045#1" to="193253427#0"/>
  <flow id="motorcycle_198876045#1_198876043#2_00072fa7" type="motorcycle" begin="0" end="3600" vehsPerHour="41.98" departLane="best" departPos="random" departSpeed="0" from="198876045#1" to="198876043#2"/>
  <flow id="car_-28231434_23241821#0_00072fa7" type="car" begin="0" end="3600" vehsPerHour="13.94" departLane="best" departPos="random" departSpeed="0" from="-28231434" to="23241821#0"/>
  <flow id="car_-28231434_198876042#0_00072fa7" type="car" begin="0" end="3600" vehsPerHour="12.80" departLane="best" departPos="random" departSpeed="0" from="-28231434" to="198876042#0"/>
  <flow id="car_-28231434_193253427#0_00072fa7" type="car" begin="0" end="3600" vehsPerHour="10.79" departLane="best" departPos="random" departSpeed="0" from="-28231434" to="193253427#0"/>
  <flow id="car_-28231434_198876043#2_00072fa7" type="car" begin="0" end="3600" vehsPerHour="10.11" departLane="best" departPos="random" departSpeed="0" from="-28231434" to="198876043#2"/>
  <flow id="car_-28231434_28231434_00072fa7" type="car" begin="0" end="3600" vehsPerHour="8.34" departLane="best" departPos="random" departSpeed="0" from="-28231434" to="28231434"/>
  <flow id="motorcycle_-28231434_23241821#0_00072fa7" type="motorcycle" begin="0" end="3600" vehsPerHour="41.76" departLane="best" departPos="random" departSpeed="0" from="-28231434" to="23241821#0"/>
  <flow id="motorcycle_-28231434_198876042#0_00072fa7" type="motorcycle" begin="0" end="3600" vehsPerHour="36.88" departLane="best" departPos="random" departSpeed="0" from="-28231434" to="198876042#0"/>
  <flow id="motorcycle_-28231434_193253427#0_00072fa7" type="motorcycle" begin="0" end="3600" vehsPerHour="33.92" departLane="best" departPos="random" departSpeed="0" from="-28231434" to="193253427#0"/>
  <flow id="motorcycle_-28231434_198876043#2_00072fa7" type="motorcycle" begin="0" end="3600" vehsPerHour="27.90" departLane="best" departPos="random" departSpeed="0" from="-28231434" to="198876043#2"/>
  <flow id="motorcycle_-28231434_28231434_00072fa7" type="motorcycle" begin="0" end="3600" vehsPerHour="24.04" departLane="best" departPos="random" departSpeed="0" from="-28231434" to="28231434"/>
  <flow id="car_-55029244#0_198876042#0_00072fa7" type="car" begin="0" end="3600" vehsPerHour="16.55" departLane="best" departPos="random" departSpeed="0" from="-55029244#0" to="198876042#0"/>
  <flow id="car_-55029244#0_193253427#0_00072fa7" type="car" begin="0" end="3600" vehsPerHour="14.43" departLane="best" departPos="random" departSpeed="0" from="-55029244#0" to="193253427#0"/>
  <flow id="car_-55029244#0_198876043#2_00072fa7" type="car" begin="0" end="3600" vehsPerHour="12.08" departLane="best" departPos="random" departSpeed="0" from="-55029244#0" to="198876043#2"/>
  <flow id="car_-55029244#0_28231434_00072fa7" type="car" begin="0" end="3600" vehsPerHour="10.75" departLane="best" departPos="random" departSpeed="0" from="-55029244#0" to="28231434"/>
  <flow id="car_-55029244#0_23241821#0_00072fa7" type="car" begin="0" end="3600" vehsPerHour="8.13" departLane="best" departPos="random" departSpeed="0" from="-55029244#0" to="23241821#0"/>
  <flow id="motorcycle_-55029244#0_198876042#0_00072fa7" type="motorcycle" begin="0" end="3600" vehsPerHour="48.39" departLane="best" departPos="random" departSpeed="0" from="-55029244#0" to="198876042#0"/>
  <flow id="motorcycle_-55029244#0_193253427#0_00072fa7" type="motorcycle" begin="0" end="3600" vehsPerHour="39.88" departLane="best" departPos="random" departSpeed="0" from="-55029244#0" to="193253427#0"/>
  <flow id="motorcycle_-55029244#0_198876043#2_00072fa7" type="motorcycle" begin="0" end="3600" vehsPerHour="35.57" departLane="best" departPos="random" departSpeed="0" from="-55029244#0" to="198876043#2"/>
  <flow id="motorcycle_-55029244#0_28231434_00072fa7" type="motorcycle" begin="0" end="3600" vehsPerHour="34.70" departLane="best" departPos="random" departSpeed="0" from="-55029244#0" to="28231434"/>
  <flow id="motorcycle_-55029244#0_23241821#0_00072fa7" type="motorcycle" begin="0" end="3600" vehsPerHour="30.09" departLane="best" departPos="random" departSpeed="0" from="-55029244#0" to="23241821#0"/>
  <flow id="car_34241530#0_198876042#0_00072fa7" type="car" begin="0" end="3600" vehsPerHour="17.31" departLane="best" departPos="random" departSpeed="0" from="34241530#0" to="198876042#0"/>
  <flow id="car_34241530#0_193253427#0_00072fa7" type="car" begin="0" end="3600" vehsPerHour="13.83" departLane="best" departPos="random" departSpeed="0" from="34241530#0" to="193253427#0"/>
  <flow id="car_34241530#0_198876043#2_00072fa7" type="car" begin="0" end="3600" vehsPerHour="12.51" departLane="best" departPos="random" departSpeed="0" from="34241530#0" to="198876043#2"/>
  <flow id="car_34241530#0_28231434_00072fa7" type="car" begin="0" end="3600" vehsPerHour="10.34" departLane="best" departPos="random" departSpeed="0" from="34241530#0" to="28231434"/>
  <flow id="car_34241530#0_23241821#0_00072fa7" type="car" begin="0" end="3600" vehsPerHour="8.34" departLane="best" departPos="random" departSpeed="0" from="34241530#0" to="23241821#0"/>
  <flow id="motorcycle_34241530#0_198876042#0_00072fa7" type="motorcycle" begin="0" end="3600" vehsPerHour="49.66" departLane="best" departPos="random" departSpeed="0" from="34241530#0" to="198876042#0"/>
  <flow id="motorcycle_34241530#0_193253427#0_00072fa7" type="motorcycle" begin="0" end="3600" vehsPerHour="40.10" departLane="best" departPos="random" departSpeed="0" from="34241530#0" to="193253427#0"/>
  <flow id="motorcycle_34241530#0_198876043#2_00072fa7" type="motorcycle" begin="0" end="3600" vehsPerHour="38.90" departLane="best" departPos="random" departSpeed="0" from="34241530#0" to="198876043#2"/>
  <flow id="motorcycle_34241530#0_28231434_00072fa7" type="motorcycle" begin="0" end="3600" vehsPerHour="33.93" departLane="best" departPos="random" departSpeed="0" from="34241530#0" to="28231434"/>
  <flow id="motorcycle_34241530#0_23241821#0_00072fa7" type="motorcycle" begin="0" end="3600" vehsPerHour="27.65" departLane="best" departPos="random" departSpeed="0" from="34241530#0" to="23241821#0"/>
  <flow id="truck_34241530#0_198876042#0_00072fa7" type="truck" begin="0" end="3600" vehsPerHour="7.29" departLane="best" departPos="random" departSpeed="0" from="34241530#0" to="198876042#0"/>
</routes>
