<routes>
<vType id="car" vClass="passenger" accel="2.6" decel="4.5" sigma="0.5" length="5.0" maxSpeed="13.9"/>
<vType id="motorcycle" vClass="motorcycle" accel="3.0" decel="5.0" sigma="0.5" length="2.0" maxSpeed="14.0"/>
<vType id="truck" vClass="truck" accel="1.2" decel="3.5" sigma="0.5" length="12.0" maxSpeed="10.0"/>

  <flow id="car_222682222#1_193253427#0_00032cfc" type="car" begin="0" end="3600" vehsPerHour="35.85" departLane="best" departPos="random" departSpeed="0" from="222682222#1" to="193253427#0"/>
  <flow id="car_222682222#1_198876043#0_00032cfc" type="car" begin="0" end="3600" vehsPerHour="31.46" departLane="best" departPos="random" departSpeed="0" from="222682222#1" to="198876043#0"/>
  <flow id="car_222682222#1_28231434_00032cfc" type="car" begin="0" end="3600" vehsPerHour="32.39" departLane="best" departPos="random" departSpeed="0" from="222682222#1" to="28231434"/>
  <flow id="car_222682222#1_23241821#0_00032cfc" type="car" begin="0" end="3600" vehsPerHour="24.01" departLane="best" departPos="random" departSpeed="0" from="222682222#1" to="23241821#0"/>
  <flow id="car_222682222#1_198876042#0_00032cfc" type="car" begin="0" end="3600" vehsPerHour="20.49" departLane="best" departPos="random" departSpeed="0" from="222682222#1" to="198876042#0"/>
  <flow id="motorcycle_222682222#1_193253427#0_00032cfc" type="motorcycle" begin="0" end="3600" vehsPerHour="109.61" departLane="best" departPos="random" departSpeed="0" from="222682222#1" to="193253427#0"/>
  <flow id="motorcycle_222682222#1_198876043#0_00032cfc" type="motorcycle" begin="0" end="3600" vehsPerHour="98.78" departLane="best" departPos="random" departSpeed="0" from="222682222#1" to="198876043#0"/>
  <flow id="motorcycle_222682222#1_28231434_00032cfc" type="motorcycle" begin="0" end="3600" vehsPerHour="89.44" departLane="best" departPos="random" departSpeed="0" from="222682222#1" to="28231434"/>
  <flow id="motorcycle_222682222#1_23241821#0_00032cfc" type="motorcycle" begin="0" end="3600" vehsPerHour="70.11" departLane="best" departPos="random" departSpeed="0" from="222682222#1" to="23241821#0"/>
  <flow id="motorcycle_222682222#1_198876042#0_00032cfc" type="motorcycle" begin="0" end="3600" vehsPerHour="63.66" departLane="best" departPos="random" departSpeed="0" from="222682222#1" to="198876042#0"/>
  <flow id="car_193253433#2_198876043#0_00032cfc" type="car" begin="0" end="3600" vehsPerHour="24.26" departLane="best" departPos="random" departSpeed="0" from="193253433#2" to="198876043#0"/>
  <flow id="car_193253433#2_28231434_00032cfc" type="car" begin="0" end="3600" vehsPerHour="21.32" departLane="best" departPos="random" departSpeed="0" from="193253433#2" to="28231434"/>
  <flow id="car_193253433#2_23241821#0_00032cfc" type="car" begin="0" end="3600" vehsPerHour="21.01" departLane="best" departPos="random" departSpeed="0" from="193253433#2" to="23241821#0"/>
  <flow id="car_193253433#2_198876042#0_00032cfc" type="car" begin="0" end="3600" vehsPerHour="16.31" departLane="best" departPos="random" departSpeed="0" from="193253433#2" to="198876042#0"/>
  <flow id="car_193253433#2_193253427#0_00032cfc" type="car" begin="0" end="3600" vehsPerHour="14.85" departLane="best" departPos="random" departSpeed="0" from="193253433#2" to="193253427#0"/>
  <flow id="motorcycle_193253433#2_198876043#0_00032cfc" type="motorcycle" begin="0" end="3600" vehsPerHour="67.13" departLane="best" departPos="random" departSpeed="0" from="193253433#2" to="198876043#0"/>
  <flow id="motorcycle_193253433#2_28231434_00032cfc" type="motorcycle" begin="0" end="3600" vehsPerHour="59.55" departLane="best" departPos="random" departSpeed="0" from="193253433#2" to="28231434"/>
  <flow id="motorcycle_193253433#2_23241821#0_00032cfc" type="motorcycle" begin="0" end="3600" vehsPerHour="56.33" departLane="best" departPos="random" departSpeed="0" from="193253433#2" to="23241821#0"/>
  <flow id="motorcycle_193253433#2_198876042#0_00032cfc" type="motorcycle" begin="0" end="3600" vehsPerHour="50.99" departLane="best" departPos="random" departSpeed="0" from="193253433#2" to="198876042#0"/>
  <flow id="motorcycle_193253433#2_193253427#0_00032cfc" type="motorcycle" begin="0" end="3600" vehsPerHour="40.99" departLane="best" departPos="random" departSpeed="0" from="193253433#2" to="193253427#0"/>
  <flow id="car_198876045#1_28231434_00032cfc" type="car" begin="0" end="3600" vehsPerHour="21.49" departLane="best" departPos="random" departSpeed="0" from="198876045#1" to="28231434"/>
  <flow id="car_198876045#1_23241821#0_00032cfc" type="car" begin="0" end="3600" vehsPerHour="18.05" departLane="best" departPos="random" departSpeed="0" from="198876045#1" to="23241821#0"/>
  <flow id="car_198876045#1_198876042#0_00032cfc" type="car" begin="0" end="3600" vehsPerHour="16.34" departLane="best" departPos="random" departSpeed="0" from="198876045#1" to="198876042#0"/>
  <flow id="car_198876045#1_193253427#0_00032cfc" type="car" begin="0" end="3600" vehsPerHour="15.16" departLane="best" departPos="random" departSpeed="0" from="198876045#1" to="193253427#0"/>
  <flow id="car_198876045#1_198876043#2_00032cfc" type="car" begin="0" end="3600" vehsPerHour="13.05" departLane="best" departPos="random" departSpeed="0" from="198876045#1" to="198876043#2"/>
  <flow id="motorcycle_198876045#1_28231434_00032cfc" type="motorcycle" begin="0" end="3600" vehsPerHour="64.36" departLane="best" departPos="random" departSpeed="0" from="198876045#1" to="28231434"/>
  <flow id="motorcycle_198876045#1_23241821#0_00032cfc" type="motorcycle" begin="0" end="3600" vehsPerHour="55.42" departLane="best" departPos="random" departSpeed="0" from="198876045#1" to="23241821#0"/>
  <flow id="motorcycle_198876045#1_198876042#0_00032cfc" type="motorcycle" begin="0" end="3600" vehsPerHour="49.88" departLane="best" departPos="random" departSpeed="0" from="198876045#1" to="198876042#0"/>
  <flow id="motorcycle_198876045#1_193253427#0_00032cfc" type="motorcycle" begin="0" end="3600" vehsPerHour="46.74" departLane="best" departPos="random" departSpeed="0" from="198876045#1" to="193253427#0"/>
  <flow id="motorcycle_198876045#1_198876043#2_00032cfc" type="motorcycle" begin="0" end="3600" vehsPerHour="41.44" departLane="best" departPos="random" departSpeed="0" from="198876045#1" to="198876043#2"/>
  <flow id="car_-28231434_23241821#0_00032cfc" type="car" begin="0" end="3600" vehsPerHour="14.62" departLane="best" departPos="random" departSpeed="0" from="-28231434" to="23241821#0"/>
  <flow id="car_-28231434_198876042#0_00032cfc" type="car" begin="0" end="3600" vehsPerHour="12.74" departLane="best" departPos="random" departSpeed="0" from="-28231434" to="198876042#0"/>
  <flow id="car_-28231434_193253427#0_00032cfc" type="car" begin="0" end="3600" vehsPerHour="10.51" departLane="best" departPos="random" departSpeed="0" from="-28231434" to="193253427#0"/>
  <flow id="car_-28231434_198876043#2_00032cfc" type="car" begin="0" end="3600" vehsPerHour="10.86" departLane="best" departPos="random" departSpeed="0" from="-28231434" to="198876043#2"/>
  <flow id="car_-28231434_28231434_00032cfc" type="car" begin="0" end="3600" vehsPerHour="8.60" departLane="best" departPos="random" departSpeed="0" from="-28231434" to="28231434"/>
  <flow id="motorcycle_-28231434_23241821#0_00032cfc" type="motorcycle" begin="0" end="3600" vehsPerHour="40.34" departLane="best" departPos="random" departSpeed="0" from="-28231434" to="23241821#0"/>
  <flow id="motorcycle_-28231434_198876042#0_00032cfc" type="motorcycle" begin="0" end="3600" vehsPerHour="36.03" departLane="best" departPos="random" departSpeed="0" from="-28231434" to="198876042#0"/>
  <flow id="motorcycle_-28231434_193253427#0_00032cfc" type="motorcycle" begin="0" end="3600" vehsPerHour="33.42" departLane="best" departPos="random" departSpeed="0" from="-28231434" to="193253427#0"/>
  <flow id="motorcycle_-28231434_198876043#2_00032cfc" type="motorcycle" begin="0" end="3600" vehsPerHour="28.16" departLane="best" departPos="random" departSpeed="0" from="-28231434" to="198876043#2"/>
  <flow id="motorcycle_-28231434_28231434_00032cfc" type="motorcycle" begin="0" end="3600" vehsPerHour="26.04" departLane="best" departPos="random" departSpeed="0" from="-28231434" to="28231434"/>
  <flow id="car_-55029244#0_198876042#0_00032cfc" type="car" begin="0" end="3600" vehsPerHour="16.13" departLane="best" departPos="random" departSpeed="0" from="-55029244#0" to="198876042#0"/>
  <flow id="car_-55029244#0_193253427#0_00032cfc" type="car" begin="0" end="3600" vehsPerHour="14.23" departLane="best" departPos="random" departSpeed="0" from="-55029244#0" to="193253427#0"/>
  <flow id="car_-55029244#0_198876043#2_00032cfc" type="car" begin="0" end="3600" vehsPerHour="12.57" departLane="best" departPos="random" departSpeed="0" from="-55029244#0" to="198876043#2"/>
  <flow id="car_-55029244#0_28231434_00032cfc" type="car" begin="0" end="3600" vehsPerHour="9.93" departLane="best" departPos="random" departSpeed="0" from="-55029244#0" to="28231434"/>
  <flow id="car_-55029244#0_23241821#0_00032cfc" type="car" begin="0" end="3600" vehsPerHour="7.98" departLane="best" departPos="random" departSpeed="0" from="-55029244#0" to="23241821#0"/>
  <flow id="motorcycle_-55029244#0_198876042#0_00032cfc" type="motorcycle" begin="0" end="3600" vehsPerHour="49.88" departLane="best" departPos="random" departSpeed="0" from="-55029244#0" to="198876042#0"/>
  <flow id="motorcycle_-55029244#0_193253427#0_00032cfc" type="motorcycle" begin="0" end="3600" vehsPerHour="40.49" departLane="best" departPos="random" departSpeed="0" from="-55029244#0" to="193253427#0"/>
  <flow id="motorcycle_-55029244#0_198876043#2_00032cfc" type="motorcycle" begin="0" end="3600" vehsPerHour="38.51" departLane="best" departPos="random" departSpeed="0" from="-55029244#0" to="198876043#2"/>
  <flow id="motorcycle_-55029244#0_28231434_00032cfc" type="motorcycle" begin="0" end="3600" vehsPerHour="32.84" departLane="best" departPos="random" departSpeed="0" from="-55029244#0" to="28231434"/>
  <flow id="motorcycle_-55029244#0_23241821#0_00032cfc" type="motorcycle" begin="0" end="3600" vehsPerHour="30.00" departLane="best" departPos="random" departSpeed="0" from="-55029244#0" to="23241821#0"/>
  <flow id="car_34241530#0_198876042#0_00032cfc" type="car" begin="0" end="3600" vehsPerHour="16.46" departLane="best" departPos="random" departSpeed="0" from="34241530#0" to="198876042#0"/>
  <flow id="car_34241530#0_193253427#0_00032cfc" type="car" begin="0" end="3600" vehsPerHour="14.49" departLane="best" departPos="random" departSpeed="0" from="34241530#0" to="193253427#0"/>
  <flow id="car_34241530#0_198876043#2_00032cfc" type="car" begin="0" end="3600" vehsPerHour="13.04" departLane="best" departPos="random" departSpeed="0" from="34241530#0" to="198876043#2"/>
  <flow id="car_34241530#0_28231434_00032cfc" type="car" begin="0" end="3600" vehsPerHour="9.98" departLane="best" departPos="random" departSpeed="0" from="34241530#0" to="28231434"/>
  <flow id="car_34241530#0_23241821#0_00032cfc" type="car" begin="0" end="3600" vehsPerHour="8.39" departLane="best" departPos="random" departSpeed="0" from="34241530#0" to="23241821#0"/>
  <flow id="motorcycle_34241530#0_198876042#0_00032cfc" type="motorcycle" begin="0" end="3600" vehsPerHour="50.30" departLane="best" departPos="random" departSpeed="0" from="34241530#0" to="198876042#0"/>
  <flow id="motorcycle_34241530#0_193253427#0_00032cfc" type="motorcycle" begin="0" end="3600" vehsPerHour="41.73" departLane="best" departPos="random" departSpeed="0" from="34241530#0" to="193253427#0"/>
  <flow id="motorcycle_34241530#0_198876043#2_00032cfc" type="motorcycle" begin="0" end="3600" vehsPerHour="37.01" departLane="best" departPos="random" departSpeed="0" from="34241530#0" to="198876043#2"/>
  <flow id="motorcycle_34241530#0_28231434_00032cfc" type="motorcycle" begin="0" end="3600" vehsPerHour="31.92" departLane="best" departPos="random" departSpeed="0" from="34241530#0" to="28231434"/>
  <flow id="motorcycle_34241530#0_23241821#0_00032cfc" type="motorcycle" begin="0" end="3600" vehsPerHour="27.73" departLane="best" departPos="random" departSpeed="0" from="34241530#0" to="23241821#0"/>
  <flow id="truck_34241530#0_198876042#0_00032cfc" type="truck" begin="0" end="3600" vehsPerHour="7.44" departLane="best" departPos="random" departSpeed="0" from="34241530#0" to="198876042#0"/>
</routes>
