<routes>
<vType id="car" vClass="passenger" accel="2.6" decel="4.5" sigma="0.5" length="5.0" maxSpeed="13.9"/>
<vType id="motorcycle" vClass="motorcycle" accel="3.0" decel="5.0" sigma="0.5" length="2.0" maxSpeed="14.0"/>
<vType id="truck" vClass="truck" accel="1.2" decel="3.5" sigma="0.5" length="12.0" maxSpeed="10.0"/>

  <flow id="car_222682222#1_193253427#0_0003d664" type="car" begin="0" end="3600" vehsPerHour="37.37" departLane="best" departPos="random" departSpeed="0" from="222682222#1" to="193253427#0"/>
  <flow id="car_222682222#1_198876043#0_0003d664" type="car" begin="0" end="3600" vehsPerHour="30.38" departLane="best" departPos="random" departSpeed="0" from="222682222#1" to="198876043#0"/>
  <flow id="car_222682222#1_28231434_0003d664" type="car" begin="0" end="3600" vehsPerHour="31.59" departLane="best" departPos="random" departSpeed="0" from="222682222#1" to="28231434"/>
  <flow id="car_222682222#1_23241821#0_0003d664" type="car" begin="0" end="3600" vehsPerHour="25.97" departLane="best" departPos="random" departSpeed="0" from="222682222#1" to="23241821#0"/>
  <flow id="car_222682222#1_198876042#0_0003d664" type="car" begin="0" end="3600" vehsPerHour="21.65" departLane="best" departPos="random" departSpeed="0" from="222682222#1" to="198876042#0"/>
  <flow id="motorcycle_222682222#1_193253427#0_0003d664" type="motorcycle" begin="0" end="3600" vehsPerHour="111.27" departLane="best" departPos="random" departSpeed="0" from="222682222#1" to="193253427#0"/>
  <flow id="motorcycle_222682222#1_198876043#0_0003d664" type="motorcycle" begin="0" end="3600" vehsPerHour="92.39" departLane="best" departPos="random" departSpeed="0" from="222682222#1" to="198876043#0"/>
  <flow id="motorcycle_222682222#1_28231434_0003d664" type="motorcycle" begin="0" end="3600" vehsPerHour="83.80" departLane="best" departPos="random" departSpeed="0" from="222682222#1" to="28231434"/>
  <flow id="motorcycle_222682222#1_23241821#0_0003d664" type="motorcycle" begin="0" end="3600" vehsPerHour="69.59" departLane="best" departPos="random" departSpeed="0" from="222682222#1" to="23241821#0"/>
  <flow id="motorcycle_222682222#1_198876042#0_0003d664" type="motorcycle" begin="0" end="3600" vehsPerHour="62.83" departLane="best" departPos="random" departSpeed="0" from="222682222#1" to="198876042#0"/>
  <flow id="car_193253433#2_198876043#0_0003d664" type="car" begin="0" end="3600" vehsPerHour="25.95" departLane="best" departPos="random" departSpeed="0" from="193253433#2" to="198876043#0"/>
  <flow id="car_193253433#2_28231434_0003d664" type="car" begin="0" end="3600" vehsPerHour="20.36" departLane="best" departPos="random" departSpeed="0" from="193253433#2" to="28231434"/>
  <flow id="car_193253433#2_23241821#0_0003d664" type="car" begin="0" end="3600" vehsPerHour="20.94" departLane="best" departPos="random" departSpeed="0" from="193253433#2" to="23241821#0"/>
  <flow id="car_193253433#2_198876042#0_0003d664" type="car" begin="0" end="3600" vehsPerHour="17.22" departLane="best" departPos="random" departSpeed="0" from="193253433#2" to="198876042#0"/>
  <flow id="car_193253433#2_193253427#0_0003d664" type="car" begin="0" end="3600" vehsPerHour="14.51" departLane="best" departPos="random" departSpeed="0" from="193253433#2" to="193253427#0"/>
  <flow id="motorcycle_193253433#2_198876043#0_0003d664" type="motorcycle" begin="0" end="3600" vehsPerHour="72.31" departLane="best" departPos="random" departSpeed="0" from="193253433#2" to="198876043#0"/>
  <flow id="motorcycle_193253433#2_28231434_0003d664" type="motorcycle" begin="0" end="3600" vehsPerHour="59.99" departLane="best" departPos="random" departSpeed="0" from="193253433#2" to="28231434"/>
  <flow id="motorcycle_193253433#2_23241821#0_0003d664" type="motorcycle" begin="0" end="3600" vehsPerHour="55.49" departLane="best" departPos="random" departSpeed="0" from="193253433#2" to="23241821#0"/>
  <flow id="motorcycle_193253433#2_198876042#0_0003d664" type="motorcycle" begin="0" end="3600" vehsPerHour="47.80" departLane="best" departPos="random" departSpeed="0" from="193253433#2" to="198876042#0"/>
  <flow id="motorcycle_193253433#2_193253427#0_0003d664" type="motorcycle" begin="0" end="3600" vehsPerHour="41.26" departLane="best" departPos="random" departSpeed="0" from="193253433#2" to="193253427#0"/>
  <flow id="car_198876045#1_28231434_0003d664" type="car" begin="0" end="3600" vehsPerHour="20.66" departLane="best" departPos="random" departSpeed="0" from="198876045#1" to="28231434"/>
  <flow id="car_198876045#1_23241821#0_0003d664" type="car" begin="0" end="3600" vehsPerHour="17.78" departLane="best" departPos="random" departSpeed="0" from="198876045#1" to="23241821#0"/>
  <flow id="car_198876045#1_198876042#0_0003d664" type="car" begin="0" end="3600" vehsPerHour="16.98" departLane="best" departPos="random" departSpeed="0" from="198876045#1" to="198876042#0"/>
  <flow id="car_198876045#1_193253427#0_0003d664" type="car" begin="0" end="3600" vehsPerHour="15.13" departLane="best" departPos="random" departSpeed="0" from="198876045#1" to="193253427#0"/>
  <flow id="car_198876045#1_198876043#2_0003d664" type="car" begin="0" end="3600" vehsPerHour="12.47" departLane="best" departPos="random" departSpeed="0" from="198876045#1" to="198876043#2"/>
  <flow id="motorcycle_198876045#1_28231434_0003d664" type="motorcycle" begin="0" end="3600" vehsPerHour="59.67" departLane="best" departPos="random" departSpeed="0" from="198876045#1" to="28231434"/>
  <flow id="motorcycle_198876045#1_23241821#0_0003d664" type="motorcycle" begin="0" end="3600" vehsPerHour="54.41" departLane="best" departPos="random" departSpeed="0" from="198876045#1" to="23241821#0"/>
  <flow id="motorcycle_198876045#1_198876042#0_0003d664" type="motorcycle" begin="0" end="3600" vehsPerHour="47.88" departLane="best" departPos="random" departSpeed="0" from="198876045#1" to="198876042#0"/>
  <flow id="motorcycle_198876045#1_193253427#0_0003d664" type="motorcycle" begin="0" end="3600" vehsPerHour="47.51" departLane="best" departPos="random" departSpeed="0" from="198876045#1" to="193253427#0"/>
  <flow id="motorcycle_198876045#1_198876043#2_0003d664" type="motorcycle" begin="0" end="3600" vehsPerHour="40.68" departLane="best" departPos="random" departSpeed="0" from="198876045#1" to="198876043#2"/>
  <flow id="car_-28231434_23241821#0_0003d664" type="car" begin="0" end="3600" vehsPerHour="13.99" departLane="best" departPos="random" departSpeed="0" from="-28231434" to="23241821#0"/>
  <flow id="car_-28231434_198876042#0_0003d664" type="car" begin="0" end="3600" vehsPerHour="12.57" departLane="best" departPos="random" departSpeed="0" from="-28231434" to="198876042#0"/>
  <flow id="car_-28231434_193253427#0_0003d664" type="car" begin="0" end="3600" vehsPerHour="10.69" departLane="best" departPos="random" departSpeed="0" from="-28231434" to="193253427#0"/>
  <flow id="car_-28231434_198876043#2_0003d664" type="car" begin="0" end="3600" vehsPerHour="10.24" departLane="best" departPos="random" departSpeed="0" from="-28231434" to="198876043#2"/>
  <flow id="car_-28231434_28231434_0003d664" type="car" begin="0" end="3600" vehsPerHour="8.30" departLane="best" departPos="random" departSpeed="0" from="-28231434" to="28231434"/>
  <flow id="motorcycle_-28231434_23241821#0_0003d664" type="motorcycle" begin="0" end="3600" vehsPerHour="40.50" departLane="best" departPos="random" departSpeed="0" from="-28231434" to="23241821#0"/>
  <flow id="motorcycle_-28231434_198876042#0_0003d664" type="motorcycle" begin="0" end="3600" vehsPerHour="36.99" departLane="best" departPos="random" departSpeed="0" from="-28231434" to="198876042#0"/>
  <flow id="motorcycle_-28231434_193253427#0_0003d664" type="motorcycle" begin="0" end="3600" vehsPerHour="32.64" departLane="best" departPos="random" departSpeed="0" from="-28231434" to="193253427#0"/>
  <flow id="motorcycle_-28231434_198876043#2_0003d664" type="motorcycle" begin="0" end="3600" vehsPerHour="30.16" departLane="best" departPos="random" departSpeed="0" from="-28231434" to="198876043#2"/>
  <flow id="motorcycle_-28231434_28231434_0003d664" type="motorcycle" begin="0" end="3600" vehsPerHour="25.71" departLane="best" departPos="random" departSpeed="0" from="-28231434" to="28231434"/>
  <flow id="car_-55029244#0_198876042#0_0003d664" type="car" begin="0" end="3600" vehsPerHour="17.25" departLane="best" departPos="random" departSpeed="0" from="-55029244#0" to="198876042#0"/>
  <flow id="car_-55029244#0_193253427#0_0003d664" type="car" begin="0" end="3600" vehsPerHour="13.88" departLane="best" departPos="random" departSpeed="0" from="-55029244#0" to="193253427#0"/>
  <flow id="car_-55029244#0_198876043#2_0003d664" type="car" begin="0" end="3600" vehsPerHour="12.88" departLane="best" departPos="random" departSpeed="0" from="-55029244#0" to="198876043#2"/>
  <flow id="car_-55029244#0_28231434_0003d664" type="car" begin="0" end="3600" vehsPerHour="10.67" departLane="best" departPos="random" departSpeed="0" from="-55029244#0" to="28231434"/>
  <flow id="car_-55029244#0_23241821#0_0003d664" type="car" begin="0" end="3600" vehsPerHour="8.41" departLane="best" departPos="random" departSpeed="0" from="-55029244#0" to="23241821#0"/>
  <flow id="motorcycle_-55029244#0_198876042#0_0003d664" type="motorcycle" begin="0" end="3600" vehsPerHour="50.95" departLane="best" departPos="random" departSpeed="0" from="-55029244#0" to="198876042#0"/>
  <flow id="motorcycle_-55029244#0_193253427#0_0003d664" type="motorcycle" begin="0" end="3600" vehsPerHour="41.43" departLane="best" departPos="random" departSpeed="0" from="-55029244#0" to="193253427#0"/>
  <flow id="motorcycle_-55029244#0_198876043#2_0003d664" type="motorcycle" begin="0" end="3600" vehsPerHour="38.39" departLane="best" departPos="random" departSpeed="0" from="-55029244#0" to="198876043#2"/>
  <flow id="motorcycle_-55029244#0_28231434_0003d664" type="motorcycle" begin="0" end="3600" vehsPerHour="34.59" departLane="best" departPos="random" departSpeed="0" from="-55029244#0" to="28231434"/>
  <flow id="motorcycle_-55029244#0_23241821#0_0003d664" type="motorcycle" begin="0" end="3600" vehsPerHour="27.91" departLane="best" departPos="random" departSpeed="0" from="-55029244#0" to="23241821#0"/>
  <flow id="car_34241530#0_198876042#0_0003d664" type="car" begin="0" end="3600" vehsPerHour="16.38" departLane="best" departPos="random" departSpeed="0" from="34241530#0" to="198876042#0"/>
  <flow id="car_34241530#0_193253427#0_0003d664" type="car" begin="0" end="3600" vehsPerHour="14.34" departLane="best" departPos="random" departSpeed="0" from="34241530#0" to="193253427#0"/>
  <flow id="car_34241530#0_198876043#2_0003d664" type="car" begin="0" end="3600" vehsPerHour="12.07" departLane="best" departPos="random" departSpeed="0" from="34241530#0" to="198876043#2"/>
  <flow id="car_34241530#0_28231434_0003d664" type="car" begin="0" end="3600" vehsPerHour="9.91" departLane="best" departPos="random" departSpeed="0" from="34241530#0" to="28231434"/>
  <flow id="car_34241530#0_23241821#0_0003d664" type="car" begin="0" end="3600" vehsPerHour="8.36" departLane="best" departPos="random" departSpeed="0" from="34241530#0" to="23241821#0"/>
  <flow id="motorcycle_34241530#0_198876042#0_0003d664" type="motorcycle" begin="0" end="3600" vehsPerHour="50.58" departLane="best" departPos="random" departSpeed="0" from="34241530#0" to="198876042#0"/>
  <flow id="motorcycle_34241530#0_193253427#0_0003d664" type="motorcycle" begin="0" end="3600" vehsPerHour="40.95" departLane="best" departPos="random" departSpeed="0" from="34241530#0" to="193253427#0"/>
  <flow id="motorcycle_34241530#0_198876043#2_0003d664" type="motorcycle" begin="0" end="3600" vehsPerHour="39.03" departLane="best" departPos="random" departSpeed="0" from="34241530#0" to="198876043#2"/>
  <flow id="motorcycle_34241530#0_28231434_0003d664" type="motorcycle" begin="0" end="3600" vehsPerHour="34.67" departLane="best" departPos="random" departSpeed="0" from="34241530#0" to="28231434"/>
  <flow id="motorcycle_34241530#0_23241821#0_0003d664" type="motorcycle" begin="0" end="3600" vehsPerHour="28.19" departLane="best" departPos="random" departSpeed="0" from="34241530#0" to="23241821#0"/>
  <flow id="truck_34241530#0_198876042#0_0003d664" type="truck" begin="0" end="3600" vehsPerHour="7.12" departLane="best" departPos="random" departSpeed="0" from="34241530#0" to="198876042#0"/>
</routes>
