<routes>
<vType id="car" vClass="passenger" accel="2.6" decel="4.5" sigma="0.5" length="5.0" maxSpeed="13.9"/>
<vType id="motorcycle" vClass="motorcycle" accel="3.0" decel="5.0" sigma="0.5" length="2.0" maxSpeed="14.0"/>
<vType id="truck" vClass="truck" accel="1.2" decel="3.5" sigma="0.5" length="12.0" maxSpeed="10.0"/>

  <flow id="car_222682222#1_193253427#0_000a90d8" type="car" begin="0" end="3600" vehsPerHour="35.68" departLane="best" departPos="random" departSpeed="0" from="222682222#1" to="193253427#0"/>
  <flow id="car_222682222#1_198876043#0_000a90d8" type="car" begin="0" end="3600" vehsPerHour="32.26" departLane="best" departPos="random" departSpeed="0" from="222682222#1" to="198876043#0"/>
  <flow id="car_222682222#1_28231434_000a90d8" type="car" begin="0" end="3600" vehsPerHour="29.78" departLane="best" departPos="random" departSpeed="0" from="222682222#1" to="28231434"/>
  <flow id="car_222682222#1_23241821#0_000a90d8" type="car" begin="0" end="3600" vehsPerHour="25.09" departLane="best" departPos="random" departSpeed="0" from="222682222#1" to="23241821#0"/>
  <flow id="car_222682222#1_198876042#0_000a90d8" type="car" begin="0" end="3600" vehsPerHour="19.87" departLane="best" departPos="random" departSpeed="0" from="222682222#1" to="198876042#0"/>
  <flow id="motorcycle_222682222#1_193253427#0_000a90d8" type="motorcycle" begin="0" end="3600" vehsPerHour="112.98" departLane="best" departPos="random" departSpeed="0" from="222682222#1" to="193253427#0"/>
  <flow id="motorcycle_222682222#1_198876043#0_000a90d8" type="motorcycle" begin="0" end="3600" vehsPerHour="90.63" departLane="best" departPos="random" departSpeed="0" from="222682222#1" to="198876043#0"/>
  <flow id="motorcycle_222682222#1_28231434_000a90d8" type="motorcycle" begin="0" end="3600" vehsPerHour="86.18" departLane="best" departPos="random" departSpeed="0" from="222682222#1" to="28231434"/>
  <flow id="motorcycle_222682222#1_23241821#0_000a90d8" type="motorcycle" begin="0" end="3600" vehsPerHour="70.11" departLane="best" departPos="random" departSpeed="0" from="222682222#1" to="23241821#0"/>
  <flow id="motorcycle_222682222#1_198876042#0_000a90d8" type="motorcycle" begin="0" end="3600" vehsPerHour="60.65" departLane="best" departPos="random" departSpeed="0" from="222682222#1" to="198876042#0"/>
  <flow id="car_193253433#2_198876043#0_000a90d8" type="car" begin="0" end="3600" vehsPerHour="24.97" departLane="best" departPos="random" departSpeed="0" from="193253433#2" to="198876043#0"/>
  <flow id="car_193253433#2_28231434_000a90d8" type="car" begin="0" end="3600" vehsPerHour="21.22" departLane="best" departPos="random" departSpeed="0" from="193253433#2" to="28231434"/>
  <flow id="car_193253433#2_23241821#0_000a90d8" type="car" begin="0" end="3600" vehsPerHour="21.14" departLane="best" departPos="random" departSpeed="0" from="193253433#2" to="23241821#0"/>
  <flow id="car_193253433#2_198876042#0_000a90d8" type="car" begin="0" end="3600" vehsPerHour="17.27" departLane="best" departPos="random" departSpeed="0" from="193253433#2" to="198876042#0"/>
  <flow id="car_193253433#2_193253427#0_000a90d8" type="car" begin="0" end="3600" vehsPerHour="14.62" departLane="best" departPos="random" departSpeed="0" from="193253433#2" to="193253427#0"/>
  <flow id="motorcycle_193253433#2_198876043#0_000a90d8" type="motorcycle" begin="0" end="3600" vehsPerHour="70.17" departLane="best" departPos="random" departSpeed="0" from="193253433#2" to="198876043#0"/>
  <flow id="motorcycle_193253433#2_28231434_000a90d8" type="motorcycle" begin="0" end="3600" vehsPerHour="60.27" departLane="best" departPos="random" departSpeed="0" from="193253433#2" to="28231434"/>
  <flow id="motorcycle_193253433#2_23241821#0_000a90d8" type="motorcycle" begin="0" end="3600" vehsPerHour="56.55" departLane="best" departPos="random" departSpeed="0" from="193253433#2" to="23241821#0"/>
  <flow id="motorcycle_193253433#2_198876042#0_000a90d8" type="motorcycle" begin="0" end="3600" vehsPerHour="47.93" departLane="best" departPos="random" departSpeed="0" from="193253433#2" to="198876042#0"/>
  <flow id="motorcycle_193253433#2_193253427#0_000a90d8" type="motorcycle" begin="0" end="3600" vehsPerHour="42.41" departLane="best" departPos="random" departSpeed="0" from="193253433#2" to="193253427#0"/>
  <flow id="car_198876045#1_28231434_000a90d8" type="car" begin="0" end="3600" vehsPerHour="21.19" departLane="best" departPos="random" departSpeed="0" from="198876045#1" to="28231434"/>
  <flow id="car_198876045#1_23241821#0_000a90d8" type="car" begin="0" end="3600" vehsPerHour="18.71" departLane="best" departPos="random" departSpeed="0" from="198876045#1" to="23241821#0"/>
  <flow id="car_198876045#1_198876042#0_000a90d8" type="car" begin="0" end="3600" vehsPerHour="17.12" departLane="best" departPos="random" departSpeed="0" from="198876045#1" to="198876042#0"/>
  <flow id="car_198876045#1_193253427#0_000a90d8" type="car" begin="0" end="3600" vehsPerHour="14.78" departLane="best" departPos="random" departSpeed="0" from="198876045#1" to="193253427#0"/>
  <flow id="car_198876045#1_198876043#2_000a90d8" type="car" begin="0" end="3600" vehsPerHour="12.52" departLane="best" departPos="random" departSpeed="0" from="198876045#1" to="198876043#2"/>
  <flow id="motorcycle_198876045#1_28231434_000a90d8" type="motorcycle" begin="0" end="3600" vehsPerHour="60.05" departLane="best" departPos="random" departSpeed="0" from="198876045#1" to="28231434"/>
  <flow id="motorcycle_198876045#1_23241821#0_000a90d8" type="motorcycle" begin="0" end="3600" vehsPerHour="53.50" departLane="best" departPos="random" departSpeed="0" from="198876045#1" to="23241821#0"/>
  <flow id="motorcycle_198876045#1_198876042#0_000a90d8" type="motorcycle" begin="0" end="3600" vehsPerHour="51.04" departLane="best" departPos="random" departSpeed="0" from="198876045#1" to="198876042#0"/>
  <flow id="motorcycle_198876045#1_193253427#0_000a90d8" type="motorcycle" begin="0" end="3600" vehsPerHour="43.38" departLane="best" departPos="random" departSpeed="0" from="198876045#1" to="193253427#0"/>
  <flow id="motorcycle_198876045#1_198876043#2_000a90d8" type="motorcycle" begin="0" end="3600" vehsPerHour="40.78" departLane="best" departPos="random" departSpeed="0" from="198876045#1" to="198876043#2"/>
  <flow id="car_-28231434_23241821#0_000a90d8" type="car" begin="0" end="3600" vehsPerHour="15.03" departLane="best" departPos="random" departSpeed="0" from="-28231434" to="23241821#0"/>
  <flow id="car_-28231434_198876042#0_000a90d8" type="car" begin="0" end="3600" vehsPerHour="12.18" departLane="best" departPos="random" departSpeed="0" from="-28231434" to="198876042#0"/>
  <flow id="car_-28231434_193253427#0_000a90d8" type="car" begin="0" end="3600" vehsPerHour="10.48" departLane="best" departPos="random" departSpeed="0" from="-28231434" to="193253427#0"/>
  <flow id="car_-28231434_198876043#2_000a90d8" type="car" begin="0" end="3600" vehsPerHour="10.15" departLane="best" departPos="random" departSpeed="0" from="-28231434" to="198876043#2"/>
  <flow id="car_-28231434_28231434_000a90d8" type="car" begin="0" end="3600" vehsPerHour="8.68" departLane="best" departPos="random" departSpeed="0" from="-28231434" to="28231434"/>
  <flow id="motorcycle_-28231434_23241821#0_000a90d8" type="motorcycle" begin="0" end="3600" vehsPerHour="43.36" departLane="best" departPos="random" departSpeed="0" from="-28231434" to="23241821#0"/>
  <flow id="motorcycle_-28231434_198876042#0_000a90d8" type="motorcycle" begin="0" end="3600" vehsPerHour="37.56" departLane="best" departPos="random" departSpeed="0" from="-28231434" to="198876042#0"/>
  <flow id="motorcycle_-28231434_193253427#0_000a90d8" type="motorcycle" begin="0" end="3600" vehsPerHour="31.92" departLane="best" departPos="random" departSpeed="0" from="-28231434" to="193253427#0"/>
  <flow id="motorcycle_-28231434_198876043#2_000a90d8" type="motorcycle" begin="0" end="3600" vehsPerHour="29.28" departLane="best" departPos="random" departSpeed="0" from="-28231434" to="198876043#2"/>
  <flow id="motorcycle_-28231434_28231434_000a90d8" type="motorcycle" begin="0" end="3600" vehsPerHour="24.39" departLane="best" departPos="random" departSpeed="0" from="-28231434" to="28231434"/>
  <flow id="car_-55029244#0_198876042#0_000a90d8" type="car" begin="0" end="3600" vehsPerHour="16.03" departLane="best" departPos="random" departSpeed="0" from="-55029244#0" to="198876042#0"/>
  <flow id="car_-55029244#0_193253427#0_000a90d8" type="car" begin="0" end="3600" vehsPerHour="13.98" departLane="best" departPos="random" departSpeed="0" from="-55029244#0" to="193253427#0"/>
  <flow id="car_-55029244#0_198876043#2_000a90d8" type="car" begin="0" end="3600" vehsPerHour="12.83" departLane="best" departPos="random" departSpeed="0" from="-55029244#0" to="198876043#2"/>
  <flow id="car_-55029244#0_28231434_000a90d8" type="car" begin="0" end="3600" vehsPerHour="10.23" departLane="best" departPos="random" departSpeed="0" from="-55029244#0" to="28231434"/>
  <flow id="car_-55029244#0_23241821#0_000a90d8" type="car" begin="0" end="3600" vehsPerHour="8.01" departLane="best" departPos="random" departSpeed="0" from="-55029244#0" to="23241821#0"/>
  <flow id="motorcycle_-55029244#0_198876042#0_000a90d8" type="motorcycle" begin="0" end="3600" vehsPerHour="51.29" departLane="best" departPos="random" departSpeed="0" from="-55029244#0" to="198876042#0"/>
  <flow id="motorcycle_-55029244#0_193253427#0_000a90d8" type="motorcycle" begin="0" end="3600" vehsPerHour="41.68" departLane="best" departPos="random" departSpeed="0" from="-55029244#0" to="193253427#0"/>
  <flow id="motorcycle_-55029244#0_198876043#2_000a90d8" type="motorcycle" begin="0" end="3600" vehsPerHour="38.38" departLane="best" departPos="random" departSpeed="0" from="-55029244#0" to="198876043#2"/>
  <flow id="motorcycle_-55029244#0_28231434_000a90d8" type="motorcycle" begin="0" end="3600" vehsPerHour="33.33" departLane="best" departPos="random" departSpeed="0" from="-55029244#0" to="28231434"/>
  <flow id="motorcycle_-55029244#0_23241821#0_000a90d8" type="motorcycle" begin="0" end="3600" vehsPerHour="28.56" departLane="best" departPos="random" departSpeed="0" from="-55029244#0" to="23241821#0"/>
  <flow id="car_34241530#0_198876042#0_000a90d8" type="car" begin="0" end="3600" vehsPerHour="16.71" departLane="best" departPos="random" departSpeed="0" from="34241530#0" to="198876042#0"/>
  <flow id="car_34241530#0_193253427#0_000a90d8" type="car" begin="0" end="3600" vehsPerHour="14.64" departLane="best" departPos="random" departSpeed="0" from="34241530#0" to="193253427#0"/>
  <flow id="car_34241530#0_198876043#2_000a90d8" type="car" begin="0" end="3600" vehsPerHour="12.26" departLane="best" departPos="random" departSpeed="0" from="34241530#0" to="198876043#2"/>
  <flow id="car_34241530#0_28231434_000a90d8" type="car" begin="0" end="3600" vehsPerHour="10.83" departLane="best" departPos="random" departSpeed="0" from="34241530#0" to="28231434"/>
  <flow id="car_34241530#0_23241821#0_000a90d8" type="car" begin="0" end="3600" vehsPerHour="8.43" departLane="best" departPos="random" departSpeed="0" from="34241530#0" to="23241821#0"/>
  <flow id="motorcycle_34241530#0_198876042#0_000a90d8" type="motorcycle" begin="0" end="3600" vehsPerHour="51.16" departLane="best" departPos="random" departSpeed="0" from="34241530#0" to="198876042#0"/>
  <flow id="motorcycle_34241530#0_193253427#0_000a90d8" type="motorcycle" begin="0" end="3600" vehsPerHour="42.53" departLane="best" departPos="random" departSpeed="0" from="34241530#0" to="193253427#0"/>
  <flow id="motorcycle_34241530#0_198876043#2_000a90d8" type="motorcycle" begin="0" end="3600" vehsPerHour="38.01" departLane="best" departPos="random" departSpeed="0" from="34241530#0" to="198876043#2"/>
  <flow id="motorcycle_34241530#0_28231434_000a90d8" type="motorcycle" begin="0" end="3600" vehsPerHour="32.90" departLane="best" departPos="random" departSpeed="0" from="34241530#0" to="28231434"/>
  <flow id="motorcycle_34241530#0_23241821#0_000a90d8" type="motorcycle" begin="0" end="3600" vehsPerHour="30.06" departLane="best" departPos="random" departSpeed="0" from="34241530#0" to="23241821#0"/>
  <flow id="truck_34241530#0_198876042#0_000a90d8" type="truck" begin="0" end="3600" vehsPerHour="6.97" departLane="best" departPos="random" departSpeed="0" from="34241530#0" to="198876042#0"/>
</routes>
