<routes>
<vType id="car" vClass="passenger" accel="2.6" decel="4.5" sigma="0.5" length="5.0" maxSpeed="13.9"/>
<vType id="motorcycle" vClass="motorcycle" accel="3.0" decel="5.0" sigma="0.5" length="2.0" maxSpeed="14.0"/>
<vType id="truck" vClass="truck" accel="1.2" decel="3.5" sigma="0.5" length="12.0" maxSpeed="10.0"/>

  <flow id="car_222682222#1_193253427#0_00000045" type="car" begin="0" end="3600" vehsPerHour="47.52" departLane="best" departPos="random" departSpeed="0" from="222682222#1" to="193253427#0"/>
  <flow id="car_222682222#1_198876043#0_00000045" type="car" begin="0" end="3600" vehsPerHour="37.31" departLane="best" departPos="random" departSpeed="0" from="222682222#1" to="198876043#0"/>
  <flow id="car_222682222#1_28231434_00000045" type="car" begin="0" end="3600" vehsPerHour="37.58" departLane="best" departPos="random" departSpeed="0" from="222682222#1" to="28231434"/>
  <flow id="car_222682222#1_23241821#0_00000045" type="car" begin="0" end="3600" vehsPerHour="31.43" departLane="best" departPos="random" departSpeed="0" from="222682222#1" to="23241821#0"/>
  <flow id="car_222682222#1_198876042#0_00000045" type="car" begin="0" end="3600" vehsPerHour="25.47" departLane="best" departPos="random" departSpeed="0" from="222682222#1" to="198876042#0"/>
  <flow id="motorcycle_222682222#1_193253427#0_00000045" type="motorcycle" begin="0" end="3600" vehsPerHour="140.37" departLane="best" departPos="random" departSpeed="0" from="222682222#1" to="193253427#0"/>
  <flow id="motorcycle_222682222#1_198876043#0_00000045" type="motorcycle" begin="0" end="3600" vehsPerHour="122.67" departLane="best" departPos="random" departSpeed="0" from="222682222#1" to="198876043#0"/>
  <flow id="motorcycle_222682222#1_28231434_00000045" type="motorcycle" begin="0" end="3600" vehsPerHour="112.83" departLane="best" departPos="random" departSpeed="0" from="222682222#1" to="28231434"/>
  <flow id="motorcycle_222682222#1_23241821#0_00000045" type="motorcycle" begin="0" end="3600" vehsPerHour="87.37" departLane="best" departPos="random" departSpeed="0" from="222682222#1" to="23241821#0"/>
  <flow id="motorcycle_222682222#1_198876042#0_00000045" type="motorcycle" begin="0" end="3600" vehsPerHour="80.32" departLane="best" departPos="random" departSpeed="0" from="222682222#1" to="198876042#0"/>
  <flow id="car_193253433#2_198876043#0_00000045" type="car" begin="0" end="3600" vehsPerHour="31.31" departLane="best" departPos="random" departSpeed="0" from="193253433#2" to="198876043#0"/>
  <flow id="car_193253433#2_28231434_00000045" type="car" begin="0" end="3600" vehsPerHour="26.78" departLane="best" departPos="random" departSpeed="0" from="193253433#2" to="28231434"/>
  <flow id="car_193253433#2_23241821#0_00000045" type="car" begin="0" end="3600" vehsPerHour="25.46" departLane="best" departPos="random" departSpeed="0" from="193253433#2" to="23241821#0"/>
  <flow id="car_193253433#2_198876042#0_00000045" type="car" begin="0" end="3600" vehsPerHour="20.84" departLane="best" departPos="random" departSpeed="0" from="193253433#2" to="198876042#0"/>
  <flow id="car_193253433#2_193253427#0_00000045" type="car" begin="0" end="3600" vehsPerHour="18.04" departLane="best" departPos="random" departSpeed="0" from="193253433#2" to="193253427#0"/>
  <flow id="motorcycle_193253433#2_198876043#0_00000045" type="motorcycle" begin="0" end="3600" vehsPerHour="87.35" departLane="best" departPos="random" departSpeed="0" from="193253433#2" to="198876043#0"/>
  <flow id="motorcycle_193253433#2_28231434_00000045" type="motorcycle" begin="0" end="3600" vehsPerHour="76.92" departLane="best" departPos="random" departSpeed="0" from="193253433#2" to="28231434"/>
  <flow id="motorcycle_193253433#2_23241821#0_00000045" type="motorcycle" begin="0" end="3600" vehsPerHour="71.95" departLane="best" departPos="random" departSpeed="0" from="193253433#2" to="23241821#0"/>
  <flow id="motorcycle_193253433#2_198876042#0_00000045" type="motorcycle" begin="0" end="3600" vehsPerHour="60.01" departLane="best" departPos="random" departSpeed="0" from="193253433#2" to="198876042#0"/>
  <flow id="motorcycle_193253433#2_193253427#0_00000045" type="motorcycle" begin="0" end="3600" vehsPerHour="49.99" departLane="best" departPos="random" departSpeed="0" from="193253433#2" to="193253427#0"/>
  <flow id="car_198876045#1_28231434_00000045" type="car" begin="0" end="3600" vehsPerHour="25.43" departLane="best" departPos="random" departSpeed="0" from="198876045#1" to="28231434"/>
  <flow id="car_198876045#1_23241821#0_00000045" type="car" begin="0" end="3600" vehsPerHour="23.78" departLane="best" departPos="random" departSpeed="0" from="198876045#1" to="23241821#0"/>
  <flow id="car_198876045#1_198876042#0_00000045" type="car" begin="0" end="3600" vehsPerHour="21.07" departLane="best" departPos="random" departSpeed="0" from="198876045#1" to="198876042#0"/>
  <flow id="car_198876045#1_193253427#0_00000045" type="car" begin="0" end="3600" vehsPerHour="18.61" departLane="best" departPos="random" departSpeed="0" from="198876045#1" to="193253427#0"/>
  <flow id="car_198876045#1_198876043#2_00000045" type="car" begin="0" end="3600" vehsPerHour="15.90" departLane="best" departPos="random" departSpeed="0" from="198876045#1" to="198876043#2"/>
  <flow id="motorcycle_198876045#1_28231434_00000045" type="motorcycle" begin="0" end="3600" vehsPerHour="80.22" departLane="best" departPos="random" departSpeed="0" from="198876045#1" to="28231434"/>
  <flow id="motorcycle_198876045#1_23241821#0_00000045" type="motorcycle" begin="0" end="3600" vehsPerHour="64.72" departLane="best" departPos="random" departSpeed="0" from="198876045#1" to="23241821#0"/>
  <flow id="motorcycle_198876045#1_198876042#0_00000045" type="motorcycle" begin="0" end="3600" vehsPerHour="61.51" departLane="best" departPos="random" departSpeed="0" from="198876045#1" to="198876042#0"/>
  <flow id="motorcycle_198876045#1_193253427#0_00000045" type="motorcycle" begin="0" end="3600" vehsPerHour="57.72" departLane="best" departPos="random" departSpeed="0" from="198876045#1" to="193253427#0"/>
  <flow id="motorcycle_198876045#1_198876043#2_00000045" type="motorcycle" begin="0" end="3600" vehsPerHour="49.59" departLane="best" departPos="random" departSpeed="0" from="198876045#1" to="198876043#2"/>
  <flow id="car_-28231434_23241821#0_00000045" type="car" begin="0" end="3600" vehsPerHour="18.82" departLane="best" departPos="random" departSpeed="0" from="-28231434" to="23241821#0"/>
  <flow id="car_-28231434_198876042#0_00000045" type="car" begin="0" end="3600" vehsPerHour="15.90" departLane="best" departPos="random" departSpeed="0" from="-28231434" to="198876042#0"/>
  <flow id="car_-28231434_193253427#0_00000045" type="car" begin="0" end="3600" vehsPerHour="12.79" departLane="best" departPos="random" departSpeed="0" from="-28231434" to="193253427#0"/>
  <flow id="car_-28231434_198876043#2_00000045" type="car" begin="0" end="3600" vehsPerHour="12.36" departLane="best" departPos="random" departSpeed="0" from="-28231434" to="198876043#2"/>
  <flow id="car_-28231434_28231434_00000045" type="car" begin="0" end="3600" vehsPerHour="9.95" departLane="best" departPos="random" departSpeed="0" from="-28231434" to="28231434"/>
  <flow id="motorcycle_-28231434_23241821#0_00000045" type="motorcycle" begin="0" end="3600" vehsPerHour="49.41" departLane="best" departPos="random" departSpeed="0" from="-28231434" to="23241821#0"/>
  <flow id="motorcycle_-28231434_198876042#0_00000045" type="motorcycle" begin="0" end="3600" vehsPerHour="45.49" departLane="best" departPos="random" departSpeed="0" from="-28231434" to="198876042#0"/>
  <flow id="motorcycle_-28231434_193253427#0_00000045" type="motorcycle" begin="0" end="3600" vehsPerHour="40.41" departLane="best" departPos="random" departSpeed="0" from="-28231434" to="193253427#0"/>
  <flow id="motorcycle_-28231434_198876043#2_00000045" type="motorcycle" begin="0" end="3600" vehsPerHour="35.02" departLane="best" departPos="random" departSpeed="0" from="-28231434" to="198876043#2"/>
  <flow id="motorcycle_-28231434_28231434_00000045" type="motorcycle" begin="0" end="3600" vehsPerHour="31.04" departLane="best" departPos="random" departSpeed="0" from="-28231434" to="28231434"/>
  <flow id="car_-55029244#0_198876042#0_00000045" type="car" begin="0" end="3600" vehsPerHour="21.36" departLane="best" departPos="random" departSpeed="0" from="-55029244#0" to="198876042#0"/>
  <flow id="car_-55029244#0_193253427#0_00000045" type="car" begin="0" end="3600" vehsPerHour="18.51" departLane="best" departPos="random" departSpeed="0" from="-55029244#0" to="193253427#0"/>
  <flow id="car_-55029244#0_198876043#2_00000045" type="car" begin="0" end="3600" vehsPerHour="15.76" departLane="best" departPos="random" departSpeed="0" from="-55029244#0" to="198876043#2"/>
  <flow id="car_-55029244#0_28231434_00000045" type="car" begin="0" end="3600" vehsPerHour="13.52" departLane="best" departPos="random" departSpeed="0" from="-55029244#0" to="28231434"/>
  <flow id="car_-55029244#0_23241821#0_00000045" type="car" begin="0" end="3600" vehsPerHour="10.39" departLane="best" departPos="random" departSpeed="0" from="-55029244#0" to="23241821#0"/>
  <flow id="motorcycle_-55029244#0_198876042#0_00000045" type="motorcycle" begin="0" end="3600" vehsPerHour="59.31" departLane="best" departPos="random" departSpeed="0" from="-55029244#0" to="198876042#0"/>
  <flow id="motorcycle_-55029244#0_193253427#0_00000045" type="motorcycle" begin="0" end="3600" vehsPerHour="49.69" departLane="best" departPos="random" departSpeed="0" from="-55029244#0" to="193253427#0"/>
  <flow id="motorcycle_-55029244#0_198876043#2_00000045" type="motorcycle" begin="0" end="3600" vehsPerHour="44.90" departLane="best" departPos="random" departSpeed="0" from="-55029244#0" to="198876043#2"/>
  <flow id="motorcycle_-55029244#0_28231434_00000045" type="motorcycle" begin="0" end="3600" vehsPerHour="41.04" departLane="best" departPos="random" departSpeed="0" from="-55029244#0" to="28231434"/>
  <flow id="motorcycle_-55029244#0_23241821#0_00000045" type="motorcycle" begin="0" end="3600" vehsPerHour="36.83" departLane="best" departPos="random" departSpeed="0" from="-55029244#0" to="23241821#0"/>
  <flow id="car_34241530#0_198876042#0_00000045" type="car" begin="0" end="3600" vehsPerHour="21.62" departLane="best" departPos="random" departSpeed="0" from="34241530#0" to="198876042#0"/>
  <flow id="car_34241530#0_193253427#0_00000045" type="car" begin="0" end="3600" vehsPerHour="17.52" departLane="best" departPos="random" departSpeed="0" from="34241530#0" to="193253427#0"/>
  <flow id="car_34241530#0_198876043#2_00000045" type="car" begin="0" end="3600" vehsPerHour="15.53" departLane="best" departPos="random" departSpeed="0" from="34241530#0" to="198876043#2"/>
  <flow id="car_34241530#0_28231434_00000045" type="car" begin="0" end="3600" vehsPerHour="13.15" departLane="best" departPos="random" departSpeed="0" from="34241530#0" to="28231434"/>
  <flow id="car_34241530#0_23241821#0_00000045" type="car" begin="0" end="3600" vehsPerHour="10.34" departLane="best" departPos="random" departSpeed="0" from="34241530#0" to="23241821#0"/>
  <flow id="motorcycle_34241530#0_198876042#0_00000045" type="motorcycle" begin="0" end="3600" vehsPerHour="60.82" departLane="best" departPos="random" departSpeed="0" from="34241530#0" to="198876042#0"/>
  <flow id="motorcycle_34241530#0_193253427#0_00000045" type="motorcycle" begin="0" end="3600" vehsPerHour="50.21" departLane="best" departPos="random" departSpeed="0" from="34241530#0" to="193253427#0"/>
  <flow id="motorcycle_34241530#0_198876043#2_00000045" type="motorcycle" begin="0" end="3600" vehsPerHour="48.11" departLane="best" departPos="random" departSpeed="0" from="34241530#0" to="198876043#2"/>
  <flow id="motorcycle_34241530#0_28231434_00000045" type="motorcycle" begin="0" end="3600" vehsPerHour="43.07" departLane="best" departPos="random" departSpeed="0" from="34241530#0" to="28231434"/>
  <flow id="motorcycle_34241530#0_23241821#0_00000045" type="motorcycle" begin="0" end="3600" vehsPerHour="35.26" departLane="best" departPos="random" departSpeed="0" from="34241530#0" to="23241821#0"/>
  <flow id="truck_34241530#0_198876042#0_00000045" type="truck" begin="0" end="3600" vehsPerHour="8.87" departLane="best" departPos="random" departSpeed="0" from="34241530#0" to="198876042#0"/>
</routes>
