<routes>
<vType id="car" vClass="passenger" accel="2.6" decel="4.5" sigma="0.5" length="5.0" maxSpeed="13.9"/>
<vType id="motorcycle" vClass="motorcycle" accel="3.0" decel="5.0" sigma="0.5" length="2.0" maxSpeed="14.0"/>
<vType id="truck" vClass="truck" accel="1.2" decel="3.5" sigma="0.5" length="12.0" maxSpeed="10.0"/>

  <flow id="car_222682222#1_193253427#0_0009bd91" type="car" begin="0" end="3600" vehsPerHour="35.82" departLane="best" departPos="random" departSpeed="0" from="222682222#1" to="193253427#0"/>
  <flow id="car_222682222#1_198876043#0_0009bd91" type="car" begin="0" end="3600" vehsPerHour="30.33" departLane="best" departPos="random" departSpeed="0" from="222682222#1" to="198876043#0"/>
  <flow id="car_222682222#1_28231434_0009bd91" type="car" begin="0" end="3600" vehsPerHour="30.16" departLane="best" departPos="random" departSpeed="0" from="222682222#1" to="28231434"/>
  <flow id="car_222682222#1_23241821#0_0009bd91" type="car" begin="0" end="3600" vehsPerHour="24.82" departLane="best" departPos="random" departSpeed="0" from="222682222#1" to="23241821#0"/>
  <flow id="car_222682222#1_198876042#0_0009bd91" type="car" begin="0" end="3600" vehsPerHour="20.33" departLane="best" departPos="random" departSpeed="0" from="222682222#1" to="198876042#0"/>
  <flow id="motorcycle_222682222#1_193253427#0_0009bd91" type="motorcycle" begin="0" end="3600" vehsPerHour="103.83" departLane="best" departPos="random" departSpeed="0" from="222682222#1" to="193253427#0"/>
  <flow id="motorcycle_222682222#1_198876043#0_0009bd91" type="motorcycle" begin="0" end="3600" vehsPerHour="98.05" departLane="best" departPos="random" departSpeed="0" from="222682222#1" to="198876043#0"/>
  <flow id="motorcycle_222682222#1_28231434_0009bd91" type="motorcycle" begin="0" end="3600" vehsPerHour="86.63" departLane="best" departPos="random" departSpeed="0" from="222682222#1" to="28231434"/>
  <flow id="motorcycle_222682222#1_23241821#0_0009bd91" type="motorcycle" begin="0" end="3600" vehsPerHour="69.62" departLane="best" departPos="random" departSpeed="0" from="222682222#1" to="23241821#0"/>
  <flow id="motorcycle_222682222#1_198876042#0_0009bd91" type="motorcycle" begin="0" end="3600" vehsPerHour="63.57" departLane="best" departPos="random" departSpeed="0" from="222682222#1" to="198876042#0"/>
  <flow id="car_193253433#2_198876043#0_0009bd91" type="car" begin="0" end="3600" vehsPerHour="24.01" departLane="best" departPos="random" departSpeed="0" from="193253433#2" to="198876043#0"/>
  <flow id="car_193253433#2_28231434_0009bd91" type="car" begin="0" end="3600" vehsPerHour="21.32" departLane="best" departPos="random" departSpeed="0" from="193253433#2" to="28231434"/>
  <flow id="car_193253433#2_23241821#0_0009bd91" type="car" begin="0" end="3600" vehsPerHour="20.20" departLane="best" departPos="random" departSpeed="0" from="193253433#2" to="23241821#0"/>
  <flow id="car_193253433#2_198876042#0_0009bd91" type="car" begin="0" end="3600" vehsPerHour="15.93" departLane="best" departPos="random" departSpeed="0" from="193253433#2" to="198876042#0"/>
  <flow id="car_193253433#2_193253427#0_0009bd91" type="car" begin="0" end="3600" vehsPerHour="14.97" departLane="best" departPos="random" departSpeed="0" from="193253433#2" to="193253427#0"/>
  <flow id="motorcycle_193253433#2_198876043#0_0009bd91" type="motorcycle" begin="0" end="3600" vehsPerHour="67.67" departLane="best" departPos="random" departSpeed="0" from="193253433#2" to="198876043#0"/>
  <flow id="motorcycle_193253433#2_28231434_0009bd91" type="motorcycle" begin="0" end="3600" vehsPerHour="61.19" departLane="best" departPos="random" departSpeed="0" from="193253433#2" to="28231434"/>
  <flow id="motorcycle_193253433#2_23241821#0_0009bd91" type="motorcycle" begin="0" end="3600" vehsPerHour="60.83" departLane="best" departPos="random" departSpeed="0" from="193253433#2" to="23241821#0"/>
  <flow id="motorcycle_193253433#2_198876042#0_0009bd91" type="motorcycle" begin="0" end="3600" vehsPerHour="50.62" departLane="best" departPos="random" departSpeed="0" from="193253433#2" to="198876042#0"/>
  <flow id="motorcycle_193253433#2_193253427#0_0009bd91" type="motorcycle" begin="0" end="3600" vehsPerHour="39.51" departLane="best" departPos="random" departSpeed="0" from="193253433#2" to="193253427#0"/>
  <flow id="car_198876045#1_28231434_0009bd91" type="car" begin="0" end="3600" vehsPerHour="20.20" departLane="best" departPos="random" departSpeed="0" from="198876045#1" to="28231434"/>
  <flow id="car_198876045#1_23241821#0_0009bd91" type="car" begin="0" end="3600" vehsPerHour="19.16" departLane="best" departPos="random" departSpeed="0" from="198876045#1" to="23241821#0"/>
  <flow id="car_198876045#1_198876042#0_0009bd91" type="car" begin="0" end="3600" vehsPerHour="15.98" departLane="best" departPos="random" departSpeed="0" from="198876045#1" to="198876042#0"/>
  <flow id="car_198876045#1_193253427#0_0009bd91" type="car" begin="0" end="3600" vehsPerHour="14.01" departLane="best" departPos="random" departSpeed="0" from="198876045#1" to="193253427#0"/>
  <flow id="car_198876045#1_198876043#2_0009bd91" type="car" begin="0" end="3600" vehsPerHour="12.43" departLane="best" departPos="random" departSpeed="0" from="198876045#1" to="198876043#2"/>
  <flow id="motorcycle_198876045#1_28231434_0009bd91" type="motorcycle" begin="0" end="3600" vehsPerHour="62.45" departLane="best" departPos="random" departSpeed="0" from="198876045#1" to="28231434"/>
  <flow id="motorcycle_198876045#1_23241821#0_0009bd91" type="motorcycle" begin="0" end="3600" vehsPerHour="51.48" departLane="best" departPos="random" departSpeed="0" from="198876045#1" to="23241821#0"/>
  <flow id="motorcycle_198876045#1_198876042#0_0009bd91" type="motorcycle" begin="0" end="3600" vehsPerHour="49.61" departLane="best" departPos="random" departSpeed="0" from="198876045#1" to="198876042#0"/>
  <flow id="motorcycle_198876045#1_193253427#0_0009bd91" type="motorcycle" begin="0" end="3600" vehsPerHour="45.60" departLane="best" departPos="random" departSpeed="0" from="198876045#1" to="193253427#0"/>
  <flow id="motorcycle_198876045#1_198876043#2_0009bd91" type="motorcycle" begin="0" end="3600" vehsPerHour="42.95" departLane="best" departPos="random" departSpeed="0" from="198876045#1" to="198876043#2"/>
  <flow id="car_-28231434_23241821#0_0009bd91" type="car" begin="0" end="3600" vehsPerHour="13.95" departLane="best" departPos="random" departSpeed="0" from="-28231434" to="23241821#0"/>
  <flow id="car_-28231434_198876042#0_0009bd91" type="car" begin="0" end="3600" vehsPerHour="13.01" departLane="best" departPos="random" departSpeed="0" from="-28231434" to="198876042#0"/>
  <flow id="car_-28231434_193253427#0_0009bd91" type="car" begin="0" end="3600" vehsPerHour="10.42" departLane="best" departPos="random" departSpeed="0" from="-28231434" to="193253427#0"/>
  <flow id="car_-28231434_198876043#2_0009bd91" type="car" begin="0" end="3600" vehsPerHour="10.58" departLane="best" departPos="random" departSpeed="0" from="-28231434" to="198876043#2"/>
  <flow id="car_-28231434_28231434_0009bd91" type="car" begin="0" end="3600" vehsPerHour="7.95" departLane="best" departPos="random" departSpeed="0" from="-28231434" to="28231434"/>
  <flow id="motorcycle_-28231434_23241821#0_0009bd91" type="motorcycle" begin="0" end="3600" vehsPerHour="39.86" departLane="best" departPos="random" departSpeed="0" from="-28231434" to="23241821#0"/>
  <flow id="motorcycle_-28231434_198876042#0_0009bd91" type="motorcycle" begin="0" end="3600" vehsPerHour="37.46" departLane="best" departPos="random" departSpeed="0" from="-28231434" to="198876042#0"/>
  <flow id="motorcycle_-28231434_193253427#0_0009bd91" type="motorcycle" begin="0" end="3600" vehsPerHour="34.58" departLane="best" departPos="random" departSpeed="0" from="-28231434" to="193253427#0"/>
  <flow id="motorcycle_-28231434_198876043#2_0009bd91" type="motorcycle" begin="0" end="3600" vehsPerHour="28.84" departLane="best" departPos="random" departSpeed="0" from="-28231434" to="198876043#2"/>
  <flow id="motorcycle_-28231434_28231434_0009bd91" type="motorcycle" begin="0" end="3600" vehsPerHour="25.69" departLane="best" departPos="random" departSpeed="0" from="-28231434" to="28231434"/>
  <flow id="car_-55029244#0_198876042#0_0009bd91" type="car" begin="0" end="3600" vehsPerHour="16.22" departLane="best" departPos="random" departSpeed="0" from="-55029244#0" to="198876042#0"/>
  <flow id="car_-55029244#0_193253427#0_0009bd91" type="car" begin="0" end="3600" vehsPerHour="14.28" departLane="best" departPos="random" departSpeed="0" from="-55029244#0" to="193253427#0"/>
  <flow id="car_-55029244#0_198876043#2_0009bd91" type="car" begin="0" end="3600" vehsPerHour="12.76" departLane="best" departPos="random" departSpeed="0" from="-55029244#0" to="198876043#2"/>
  <flow id="car_-55029244#0_28231434_0009bd91" type="car" begin="0" end="3600" vehsPerHour="10.63" departLane="best" departPos="random" departSpeed="0" from="-55029244#0" to="28231434"/>
  <flow id="car_-55029244#0_23241821#0_0009bd91" type="car" begin="0" end="3600" vehsPerHour="8.31" departLane="best" departPos="random" departSpeed="0" from="-55029244#0" to="23241821#0"/>
  <flow id="motorcycle_-55029244#0_198876042#0_0009bd91" type="motorcycle" begin="0" end="3600" vehsPerHour="50.00" departLane="best" departPos="random" departSpeed="0" from="-55029244#0" to="198876042#0"/>
  <flow id="motorcycle_-55029244#0_193253427#0_0009bd91" type="motorcycle" begin="0" end="3600" vehsPerHour="40.35" departLane="best" departPos="random" departSpeed="0" from="-55029244#0" to="193253427#0"/>
  <flow id="motorcycle_-55029244#0_198876043#2_0009bd91" type="motorcycle" begin="0" end="3600" vehsPerHour="37.62" departLane="best" departPos="random" departSpeed="0" from="-55029244#0" to="198876043#2"/>
  <flow id="motorcycle_-55029244#0_28231434_0009bd91" type="motorcycle" begin="0" end="3600" vehsPerHour="32.18" departLane="best" departPos="random" departSpeed="0" from="-55029244#0" to="28231434"/>
  <flow id="motorcycle_-55029244#0_23241821#0_0009bd91" type="motorcycle" begin="0" end="3600" vehsPerHour="29.07" departLane="best" departPos="random" departSpeed="0" from="-55029244#0" to="23241821#0"/>
  <flow id="car_34241530#0_198876042#0_0009bd91" type="car" begin="0" end="3600" vehsPerHour="16.84" departLane="best" departPos="random" departSpeed="0" from="34241530#0" to="198876042#0"/>
  <flow id="car_34241530#0_193253427#0_0009bd91" type="car" begin="0" end="3600" vehsPerHour="14.06" departLane="best" departPos="random" departSpeed="0" from="34241530#0" to="193253427#0"/>
  <flow id="car_34241530#0_198876043#2_0009bd91" type="car" begin="0" end="3600" vehsPerHour="11.87" departLane="best" departPos="random" departSpeed="0" from="34241530#0" to="198876043#2"/>
  <flow id="car_34241530#0_28231434_0009bd91" type="car" begin="0" end="3600" vehsPerHour="9.94" departLane="best" departPos="random" departSpeed="0" from="34241530#0" to="28231434"/>
  <flow id="car_34241530#0_23241821#0_0009bd91" type="car" begin="0" end="3600" vehsPerHour="7.89" departLane="best" departPos="random" departSpeed="0" from="34241530#0" to="23241821#0"/>
  <flow id="motorcycle_34241530#0_198876042#0_0009bd91" type="motorcycle" begin="0" end="3600" vehsPerHour="50.81" departLane="best" departPos="random" departSpeed="0" from="34241530#0" to="198876042#0"/>
  <flow id="motorcycle_34241530#0_193253427#0_0009bd91" type="motorcycle" begin="0" end="3600" vehsPerHour="40.94" departLane="best" departPos="random" departSpeed="0" from="34241530#0" to="193253427#0"/>
  <flow id="motorcycle_34241530#0_198876043#2_0009bd91" type="motorcycle" begin="0" end="3600" vehsPerHour="37.37" departLane="best" departPos="random" departSpeed="0" from="34241530#0" to="198876043#2"/>
  <flow id="motorcycle_34241530#0_28231434_0009bd91" type="motorcycle" begin="0" end="3600" vehsPerHour="34.14" departLane="best" departPos="random" departSpeed="0" from="34241530#0" to="28231434"/>
  <flow id="motorcycle_34241530#0_23241821#0_0009bd91" type="motorcycle" begin="0" end="3600" vehsPerHour="28.05" departLane="best" departPos="random" departSpeed="0" from="34241530#0" to="23241821#0"/>
  <flow id="truck_34241530#0_198876042#0_0009bd91" type="truck" begin="0" end="3600" vehsPerHour="7.20" departLane="best" departPos="random" departSpeed="0" from="34241530#0" to="198876042#0"/>
</routes>
