<routes>
<vType id="car" vClass="passenger" accel="2.6" decel="4.5" sigma="0.5" length="5.0" maxSpeed="13.9"/>
<vType id="motorcycle" vClass="motorcycle" accel="3.0" decel="5.0" sigma="0.5" length="2.0" maxSpeed="14.0"/>
<vType id="truck" vClass="truck" accel="1.2" decel="3.5" sigma="0.5" length="12.0" maxSpeed="10.0"/>

  <flow id="car_222682222#1_193253427#0_000c62c9" type="car" begin="0" end="3600" vehsPerHour="36.00" departLane="best" departPos="random" departSpeed="0" from="222682222#1" to="193253427#0"/>
  <flow id="car_222682222#1_198876043#0_000c62c9" type="car" begin="0" end="3600" vehsPerHour="30.39" departLane="best" departPos="random" departSpeed="0" from="222682222#1" to="198876043#0"/>
  <flow id="car_222682222#1_28231434_000c62c9" type="car" begin="0" end="3600" vehsPerHour="30.39" departLane="best" departPos="random" departSpeed="0" from="222682222#1" to="28231434"/>
  <flow id="car_222682222#1_23241821#0_000c62c9" type="car" begin="0" end="3600" vehsPerHour="25.18" departLane="best" departPos="random" departSpeed="0" from="222682222#1" to="23241821#0"/>
  <flow id="car_222682222#1_198876042#0_000c62c9" type="car" begin="0" end="3600" vehsPerHour="21.53" departLane="best" departPos="random" departSpeed="0" from="222682222#1" to="198876042#0"/>
  <flow id="motorcycle_222682222#1_193253427#0_000c62c9" type="motorcycle" begin="0" end="3600" vehsPerHour="107.90" departLane="best" departPos="random" departSpeed="0" from="222682222#1" to="193253427#0"/>
  <flow id="motorcycle_222682222#1_198876043#0_000c62c9" type="motorcycle" begin="0" end="3600" vehsPerHour="99.92" departLane="best" departPos="random" departSpeed="0" from="222682222#1" to="198876043#0"/>
  <flow id="motorcycle_222682222#1_28231434_000c62c9" type="motorcycle" begin="0" end="3600" vehsPerHour="84.40" departLane="best" departPos="random" departSpeed="0" from="222682222#1" to="28231434"/>
  <flow id="motorcycle_222682222#1_23241821#0_000c62c9" type="motorcycle" begin="0" end="3600" vehsPerHour="70.07" departLane="best" departPos="random" departSpeed="0" from="222682222#1" to="23241821#0"/>
  <flow id="motorcycle_222682222#1_198876042#0_000c62c9" type="motorcycle" begin="0" end="3600" vehsPerHour="59.81" departLane="best" departPos="random" departSpeed="0" from="222682222#1" to="198876042#0"/>
  <flow id="car_193253433#2_198876043#0_000c62c9" type="car" begin="0" end="3600" vehsPerHour="23.92" departLane="best" departPos="random" departSpeed="0" from="193253433#2" to="198876043#0"/>
  <flow id="car_193253433#2_28231434_000c62c9" type="car" begin="0" end="3600" vehsPerHour="20.82" departLane="best" departPos="random" departSpeed="0" from="193253433#2" to="28231434"/>
  <flow id="car_193253433#2_23241821#0_000c62c9" type="car" begin="0" end="3600" vehsPerHour="20.13" departLane="best" departPos="random" departSpeed="0" from="193253433#2" to="23241821#0"/>
  <flow id="car_193253433#2_198876042#0_000c62c9" type="car" begin="0" end="3600" vehsPerHour="16.63" departLane="best" departPos="random" departSpeed="0" from="193253433#2" to="198876042#0"/>
  <flow id="car_193253433#2_193253427#0_000c62c9" type="car" begin="0" end="3600" vehsPerHour="14.01" departLane="best" departPos="random" departSpeed="0" from="193253433#2" to="193253427#0"/>
  <flow id="motorcycle_193253433#2_198876043#0_000c62c9" type="motorcycle" begin="0" end="3600" vehsPerHour="73.47" departLane="best" departPos="random" departSpeed="0" from="193253433#2" to="198876043#0"/>
  <flow id="motorcycle_193253433#2_28231434_000c62c9" type="motorcycle" begin="0" end="3600" vehsPerHour="63.75" departLane="best" departPos="random" departSpeed="0" from="193253433#2" to="28231434"/>
  <flow id="motorcycle_193253433#2_23241821#0_000c62c9" type="motorcycle" begin="0" end="3600" vehsPerHour="58.11" departLane="best" departPos="random" departSpeed="0" from="193253433#2" to="23241821#0"/>
  <flow id="motorcycle_193253433#2_198876042#0_000c62c9" type="motorcycle" begin="0" end="3600" vehsPerHour="51.74" departLane="best" departPos="random" departSpeed="0" from="193253433#2" to="198876042#0"/>
  <flow id="motorcycle_193253433#2_193253427#0_000c62c9" type="motorcycle" begin="0" end="3600" vehsPerHour="41.37" departLane="best" departPos="random" departSpeed="0" from="193253433#2" to="193253427#0"/>
  <flow id="car_198876045#1_28231434_000c62c9" type="car" begin="0" end="3600" vehsPerHour="21.46" departLane="best" departPos="random" departSpeed="0" from="198876045#1" to="28231434"/>
  <flow id="car_198876045#1_23241821#0_000c62c9" type="car" begin="0" end="3600" vehsPerHour="18.96" departLane="best" departPos="random" departSpeed="0" from="198876045#1" to="23241821#0"/>
  <flow id="car_198876045#1_198876042#0_000c62c9" type="car" begin="0" end="3600" vehsPerHour="16.42" departLane="best" departPos="random" departSpeed="0" from="198876045#1" to="198876042#0"/>
  <flow id="car_198876045#1_193253427#0_000c62c9" type="car" begin="0" end="3600" vehsPerHour="14.49" departLane="best" departPos="random" departSpeed="0" from="198876045#1" to="193253427#0"/>
  <flow id="car_198876045#1_198876043#2_000c62c9" type="car" begin="0" end="3600" vehsPerHour="12.42" departLane="best" departPos="random" departSpeed="0" from="198876045#1" to="198876043#2"/>
  <flow id="motorcycle_198876045#1_28231434_000c62c9" type="motorcycle" begin="0" end="3600" vehsPerHour="64.12" departLane="best" departPos="random" departSpeed="0" from="198876045#1" to="28231434"/>
  <flow id="motorcycle_198876045#1_23241821#0_000c62c9" type="motorcycle" begin="0" end="3600" vehsPerHour="52.48" departLane="best" departPos="random" departSpeed="0" from="198876045#1" to="23241821#0"/>
  <flow id="motorcycle_198876045#1_198876042#0_000c62c9" type="motorcycle" begin="0" end="3600" vehsPerHour="48.13" departLane="best" departPos="random" departSpeed="0" from="198876045#1" to="198876042#0"/>
  <flow id="motorcycle_198876045#1_193253427#0_000c62c9" type="motorcycle" begin="0" end="3600" vehsPerHour="47.84" departLane="best" departPos="random" departSpeed="0" from="198876045#1" to="193253427#0"/>
  <flow id="motorcycle_198876045#1_198876043#2_000c62c9" type="motorcycle" begin="0" end="3600" vehsPerHour="43.09" departLane="best" departPos="random" departSpeed="0" from="198876045#1" to="198876043#2"/>
  <flow id="car_-28231434_23241821#0_000c62c9" type="car" begin="0" end="3600" vehsPerHour="14.97" departLane="best" departPos="random" departSpeed="0" from="-28231434" to="23241821#0"/>
  <flow id="car_-28231434_198876042#0_000c62c9" type="car" begin="0" end="3600" vehsPerHour="12.92" departLane="best" departPos="random" departSpeed="0" from="-28231434" to="198876042#0"/>
  <flow id="car_-28231434_193253427#0_000c62c9" type="car" begin="0" end="3600" vehsPerHour="10.51" departLane="best" departPos="random" departSpeed="0" from="-28231434" to="193253427#0"/>
  <flow id="car_-28231434_198876043#2_000c62c9" type="car" begin="0" end="3600" vehsPerHour="10.29" departLane="best" departPos="random" departSpeed="0" from="-28231434" to="198876043#2"/>
  <flow id="car_-28231434_28231434_000c62c9" type="car" begin="0" end="3600" vehsPerHour="8.68" departLane="best" departPos="random" departSpeed="0" from="-28231434" to="28231434"/>
  <flow id="motorcycle_-28231434_23241821#0_000c62c9" type="motorcycle" begin="0" end="3600" vehsPerHour="42.51" departLane="best" departPos="random" departSpeed="0" from="-28231434" to="23241821#0"/>
  <flow id="motorcycle_-28231434_198876042#0_000c62c9" type="motorcycle" begin="0" end="3600" vehsPerHour="39.00" departLane="best" departPos="random" departSpeed="0" from="-28231434" to="198876042#0"/>
  <flow id="motorcycle_-28231434_193253427#0_000c62c9" type="motorcycle" begin="0" end="3600" vehsPerHour="34.36" departLane="best" departPos="random" departSpeed="0" from="-28231434" to="193253427#0"/>
  <flow id="motorcycle_-28231434_198876043#2_000c62c9" type="motorcycle" begin="0" end="3600" vehsPerHour="28.33" departLane="best" departPos="random" departSpeed="0" from="-28231434" to="198876043#2"/>
  <flow id="motorcycle_-28231434_28231434_000c62c9" type="motorcycle" begin="0" end="3600" vehsPerHour="24.97" departLane="best" departPos="random" departSpeed="0" from="-28231434" to="28231434"/>
  <flow id="car_-55029244#0_198876042#0_000c62c9" type="car" begin="0" end="3600" vehsPerHour="16.87" departLane="best" departPos="random" departSpeed="0" from="-55029244#0" to="198876042#0"/>
  <flow id="car_-55029244#0_193253427#0_000c62c9" type="car" begin="0" end="3600" vehsPerHour="13.89" departLane="best" departPos="random" departSpeed="0" from="-55029244#0" to="193253427#0"/>
  <flow id="car_-55029244#0_198876043#2_000c62c9" type="car" begin="0" end="3600" vehsPerHour="12.57" departLane="best" departPos="random" departSpeed="0" from="-55029244#0" to="198876043#2"/>
  <flow id="car_-55029244#0_28231434_000c62c9" type="car" begin="0" end="3600" vehsPerHour="10.32" departLane="best" departPos="random" departSpeed="0" from="-55029244#0" to="28231434"/>
  <flow id="car_-55029244#0_23241821#0_000c62c9" type="car" begin="0" end="3600" vehsPerHour="8.12" departLane="best" departPos="random" departSpeed="0" from="-55029244#0" to="23241821#0"/>
  <flow id="motorcycle_-55029244#0_198876042#0_000c62c9" type="motorcycle" begin="0" end="3600" vehsPerHour="48.84" departLane="best" departPos="random" departSpeed="0" from="-55029244#0" to="198876042#0"/>
  <flow id="motorcycle_-55029244#0_193253427#0_000c62c9" type="motorcycle" begin="0" end="3600" vehsPerHour="42.26" departLane="best" departPos="random" departSpeed="0" from="-55029244#0" to="193253427#0"/>
  <flow id="motorcycle_-55029244#0_198876043#2_000c62c9" type="motorcycle" begin="0" end="3600" vehsPerHour="36.58" departLane="best" departPos="random" departSpeed="0" from="-55029244#0" to="198876043#2"/>
  <flow id="motorcycle_-55029244#0_28231434_000c62c9" type="motorcycle" begin="0" end="3600" vehsPerHour="33.90" departLane="best" departPos="random" departSpeed="0" from="-55029244#0" to="28231434"/>
  <flow id="motorcycle_-55029244#0_23241821#0_000c62c9" type="motorcycle" begin="0" end="3600" vehsPerHour="28.19" departLane="best" departPos="random" departSpeed="0" from="-55029244#0" to="23241821#0"/>
  <flow id="car_34241530#0_198876042#0_000c62c9" type="car" begin="0" end="3600" vehsPerHour="16.33" departLane="best" departPos="random" departSpeed="0" from="34241530#0" to="198876042#0"/>
  <flow id="car_34241530#0_193253427#0_000c62c9" type="car" begin="0" end="3600" vehsPerHour="14.29" departLane="best" departPos="random" departSpeed="0" from="34241530#0" to="193253427#0"/>
  <flow id="car_34241530#0_198876043#2_000c62c9" type="car" begin="0" end="3600" vehsPerHour="12.82" departLane="best" departPos="random" departSpeed="0" from="34241530#0" to="198876043#2"/>
  <flow id="car_34241530#0_28231434_000c62c9" type="car" begin="0" end="3600" vehsPerHour="10.51" departLane="best" departPos="random" departSpeed="0" from="34241530#0" to="28231434"/>
  <flow id="car_34241530#0_23241821#0_000c62c9" type="car" begin="0" end="3600" vehsPerHour="7.88" departLane="best" departPos="random" departSpeed="0" from="34241530#0" to="23241821#0"/>
  <flow id="motorcycle_34241530#0_198876042#0_000c62c9" type="motorcycle" begin="0" end="3600" vehsPerHour="52.04" departLane="best" departPos="random" departSpeed="0" from="34241530#0" to="198876042#0"/>
  <flow id="motorcycle_34241530#0_193253427#0_000c62c9" type="motorcycle" begin="0" end="3600" vehsPerHour="41.38" departLane="best" departPos="random" departSpeed="0" from="34241530#0" to="193253427#0"/>
  <flow id="motorcycle_34241530#0_198876043#2_000c62c9" type="motorcycle" begin="0" end="3600" vehsPerHour="35.80" departLane="best" departPos="random" departSpeed="0" from="34241530#0" to="198876043#2"/>
  <flow id="motorcycle_34241530#0_28231434_000c62c9" type="motorcycle" begin="0" end="3600" vehsPerHour="34.25" departLane="best" departPos="random" departSpeed="0" from="34241530#0" to="28231434"/>
  <flow id="motorcycle_34241530#0_23241821#0_000c62c9" type="motorcycle" begin="0" end="3600" vehsPerHour="28.95" departLane="best" departPos="random" departSpeed="0" from="34241530#0" to="23241821#0"/>
  <flow id="truck_34241530#0_198876042#0_000c62c9" type="truck" begin="0" end="3600" vehsPerHour="7.32" departLane="best" departPos="random" departSpeed="0" from="34241530#0" to="198876042#0"/>
</routes>
