<routes>
<vType id="car" vClass="passenger" accel="2.6" decel="4.5" sigma="0.5" length="5.0" maxSpeed="13.9"/>
<vType id="motorcycle" vClass="motorcycle" accel="3.0" decel="5.0" sigma="0.5" length="2.0" maxSpeed="14.0"/>
<vType id="truck" vClass="truck" accel="1.2" decel="3.5" sigma="0.5" length="12.0" maxSpeed="10.0"/>

  <flow id="car_222682222#1_193253427#0_000aa692" type="car" begin="0" end="3600" vehsPerHour="36.24" departLane="best" departPos="random" departSpeed="0" from="222682222#1" to="193253427#0"/>
  <flow id="car_222682222#1_198876043#0_000aa692" type="car" begin="0" end="3600" vehsPerHour="29.70" departLane="best" departPos="random" departSpeed="0" from="222682222#1" to="198876043#0"/>
  <flow id="car_222682222#1_28231434_000aa692" type="car" begin="0" end="3600" vehsPerHour="31.71" departLane="best" departPos="random" departSpeed="0" from="222682222#1" to="28231434"/>
  <flow id="car_222682222#1_23241821#0_000aa692" type="car" begin="0" end="3600" vehsPerHour="24.83" departLane="best" departPos="random" departSpeed="0" from="222682222#1" to="23241821#0"/>
  <flow id="car_222682222#1_198876042#0_000aa692" type="car" begin="0" end="3600" vehsPerHour="19.93" departLane="best" departPos="random" departSpeed="0" from="222682222#1" to="198876042#0"/>
  <flow id="motorcycle_222682222#1_193253427#0_000aa692" type="motorcycle" begin="0" end="3600" vehsPerHour="105.83" departLane="best" departPos="random" departSpeed="0" from="222682222#1" to="193253427#0"/>
  <flow id="motorcycle_222682222#1_198876043#0_000aa692" type="motorcycle" begin="0" end="3600" vehsPerHour="92.43" departLane="best" departPos="random" departSpeed="0" from="222682222#1" to="198876043#0"/>
  <flow id="motorcycle_222682222#1_28231434_000aa692" type="motorcycle" begin="0" end="3600" vehsPerHour="83.35" departLane="best" departPos="random" departSpeed="0" from="222682222#1" to="28231434"/>
  <flow id="motorcycle_222682222#1_23241821#0_000aa692" type="motorcycle" begin="0" end="3600" vehsPerHour="72.06" departLane="best" departPos="random" departSpeed="0" from="222682222#1" to="23241821#0"/>
  <flow id="motorcycle_222682222#1_198876042#0_000aa692" type="motorcycle" begin="0" end="3600" vehsPerHour="60.11" departLane="best" departPos="random" departSpeed="0" from="222682222#1" to="198876042#0"/>
  <flow id="car_193253433#2_198876043#0_000aa692" type="car" begin="0" end="3600" vehsPerHour="25.86" departLane="best" departPos="random" departSpeed="0" from="193253433#2" to="198876043#0"/>
  <flow id="car_193253433#2_28231434_000aa692" type="car" begin="0" end="3600" vehsPerHour="20.79" departLane="best" departPos="random" departSpeed="0" from="193253433#2" to="28231434"/>
  <flow id="car_193253433#2_23241821#0_000aa692" type="car" begin="0" end="3600" vehsPerHour="20.21" departLane="best" departPos="random" departSpeed="0" from="193253433#2" to="23241821#0"/>
  <flow id="car_193253433#2_198876042#0_000aa692" type="car" begin="0" end="3600" vehsPerHour="17.06" departLane="best" departPos="random" departSpeed="0" from="193253433#2" to="198876042#0"/>
  <flow id="car_193253433#2_193253427#0_000aa692" type="car" begin="0" end="3600" vehsPerHour="13.90" departLane="best" departPos="random" departSpeed="0" from="193253433#2" to="193253427#0"/>
  <flow id="motorcycle_193253433#2_198876043#0_000aa692" type="motorcycle" begin="0" end="3600" vehsPerHour="67.95" departLane="best" departPos="random" departSpeed="0" from="193253433#2" to="198876043#0"/>
  <flow id="motorcycle_193253433#2_28231434_000aa692" type="motorcycle" begin="0" end="3600" vehsPerHour="64.27" departLane="best" departPos="random" departSpeed="0" from="193253433#2" to="28231434"/>
  <flow id="motorcycle_193253433#2_23241821#0_000aa692" type="motorcycle" begin="0" end="3600" vehsPerHour="60.43" departLane="best" departPos="random" departSpeed="0" from="193253433#2" to="23241821#0"/>
  <flow id="motorcycle_193253433#2_198876042#0_000aa692" type="motorcycle" begin="0" end="3600" vehsPerHour="51.79" departLane="best" departPos="random" departSpeed="0" from="193253433#2" to="198876042#0"/>
  <flow id="motorcycle_193253433#2_193253427#0_000aa692" type="motorcycle" begin="0" end="3600" vehsPerHour="40.42" departLane="best" departPos="random" departSpeed="0" from="193253433#2" to="193253427#0"/>
  <flow id="car_198876045#1_28231434_000aa692" type="car" begin="0" end="3600" vehsPerHour="19.99" departLane="best" departPos="random" departSpeed="0" from="198876045#1" to="28231434"/>
  <flow id="car_198876045#1_23241821#0_000aa692" type="car" begin="0" end="3600" vehsPerHour="18.74" departLane="best" departPos="random" departSpeed="0" from="198876045#1" to="23241821#0"/>
  <flow id="car_198876045#1_198876042#0_000aa692" type="car" begin="0" end="3600" vehsPerHour="15.98" departLane="best" departPos="random" departSpeed="0" from="198876045#1" to="198876042#0"/>
  <flow id="car_198876045#1_193253427#0_000aa692" type="car" begin="0" end="3600" vehsPerHour="15.11" departLane="best" departPos="random" departSpeed="0" from="198876045#1" to="193253427#0"/>
  <flow id="car_198876045#1_198876043#2_000aa692" type="car" begin="0" end="3600" vehsPerHour="12.59" departLane="best" departPos="random" departSpeed="0" from="198876045#1" to="198876043#2"/>
  <flow id="motorcycle_198876045#1_28231434_000aa692" type="motorcycle" begin="0" end="3600" vehsPerHour="61.88" departLane="best" departPos="random" departSpeed="0" from="198876045#1" to="28231434"/>
  <flow id="motorcycle_198876045#1_23241821#0_000aa692" type="motorcycle" begin="0" end="3600" vehsPerHour="56.10" departLane="best" departPos="random" departSpeed="0" from="198876045#1" to="23241821#0"/>
  <flow id="motorcycle_198876045#1_198876042#0_000aa692" type="motorcycle" begin="0" end="3600" vehsPerHour="52.05" departLane="best" departPos="random" departSpeed="0" from="198876045#1" to="198876042#0"/>
  <flow id="motorcycle_198876045#1_193253427#0_000aa692" type="motorcycle" begin="0" end="3600" vehsPerHour="46.46" departLane="best" departPos="random" departSpeed="0" from="198876045#1" to="193253427#0"/>
  <flow id="motorcycle_198876045#1_198876043#2_000aa692" type="motorcycle" begin="0" end="3600" vehsPerHour="43.33" departLane="best" departPos="random" departSpeed="0" from="198876045#1" to="198876043#2"/>
  <flow id="car_-28231434_23241821#0_000aa692" type="car" begin="0" end="3600" vehsPerHour="14.77" departLane="best" departPos="random" departSpeed="0" from="-28231434" to="23241821#0"/>
  <flow id="car_-28231434_198876042#0_000aa692" type="car" begin="0" end="3600" vehsPerHour="12.44" departLane="best" departPos="random" departSpeed="0" from="-28231434" to="198876042#0"/>
  <flow id="car_-28231434_193253427#0_000aa692" type="car" begin="0" end="3600" vehsPerHour="10.41" departLane="best" departPos="random" departSpeed="0" from="-28231434" to="193253427#0"/>
  <flow id="car_-28231434_198876043#2_000aa692" type="car" begin="0" end="3600" vehsPerHour="10.70" departLane="best" departPos="random" departSpeed="0" from="-28231434" to="198876043#2"/>
  <flow id="car_-28231434_28231434_000aa692" type="car" begin="0" end="3600" vehsPerHour="8.10" departLane="best" departPos="random" departSpeed="0" from="-28231434" to="28231434"/>
  <flow id="motorcycle_-28231434_23241821#0_000aa692" type="motorcycle" begin="0" end="3600" vehsPerHour="40.23" departLane="best" departPos="random" departSpeed="0" from="-28231434" to="23241821#0"/>
  <flow id="motorcycle_-28231434_198876042#0_000aa692" type="motorcycle" begin="0" end="3600" vehsPerHour="38.65" departLane="best" departPos="random" departSpeed="0" from="-28231434" to="198876042#0"/>
  <flow id="motorcycle_-28231434_193253427#0_000aa692" type="motorcycle" begin="0" end="3600" vehsPerHour="32.38" departLane="best" departPos="random" departSpeed="0" from="-28231434" to="193253427#0"/>
  <flow id="motorcycle_-28231434_198876043#2_000aa692" type="motorcycle" begin="0" end="3600" vehsPerHour="27.70" departLane="best" departPos="random" departSpeed="0" from="-28231434" to="198876043#2"/>
  <flow id="motorcycle_-28231434_28231434_000aa692" type="motorcycle" begin="0" end="3600" vehsPerHour="24.60" departLane="best" departPos="random" departSpeed="0" from="-28231434" to="28231434"/>
  <flow id="car_-55029244#0_198876042#0_000aa692" type="car" begin="0" end="3600" vehsPerHour="15.94" departLane="best" departPos="random" departSpeed="0" from="-55029244#0" to="198876042#0"/>
  <flow id="car_-55029244#0_193253427#0_000aa692" type="car" begin="0" end="3600" vehsPerHour="14.93" departLane="best" departPos="random" departSpeed="0" from="-55029244#0" to="193253427#0"/>
  <flow id="car_-55029244#0_198876043#2_000aa692" type="car" begin="0" end="3600" vehsPerHour="11.82" departLane="best" departPos="random" departSpeed="0" from="-55029244#0" to="198876043#2"/>
  <flow id="car_-55029244#0_28231434_000aa692" type="car" begin="0" end="3600" vehsPerHour="9.97" departLane="best" departPos="random" departSpeed="0" from="-55029244#0" to="28231434"/>
  <flow id="car_-55029244#0_23241821#0_000aa692" type="car" begin="0" end="3600" vehsPerHour="8.14" departLane="best" departPos="random" departSpeed="0" from="-55029244#0" to="23241821#0"/>
  <flow id="motorcycle_-55029244#0_198876042#0_000aa692" type="motorcycle" begin="0" end="3600" vehsPerHour="49.31" departLane="best" departPos="random" departSpeed="0" from="-55029244#0" to="198876042#0"/>
  <flow id="motorcycle_-55029244#0_193253427#0_000aa692" type="motorcycle" begin="0" end="3600" vehsPerHour="43.34" departLane="best" departPos="random" departSpeed="0" from="-55029244#0" to="193253427#0"/>
  <flow id="motorcycle_-55029244#0_198876043#2_000aa692" type="motorcycle" begin="0" end="3600" vehsPerHour="37.66" departLane="best" departPos="random" departSpeed="0" from="-55029244#0" to="198876043#2"/>
  <flow id="motorcycle_-55029244#0_28231434_000aa692" type="motorcycle" begin="0" end="3600" vehsPerHour="32.50" departLane="best" departPos="random" departSpeed="0" from="-55029244#0" to="28231434"/>
  <flow id="motorcycle_-55029244#0_23241821#0_000aa692" type="motorcycle" begin="0" end="3600" vehsPerHour="28.11" departLane="best" departPos="random" departSpeed="0" from="-55029244#0" to="23241821#0"/>
  <flow id="car_34241530#0_198876042#0_000aa692" type="car" begin="0" end="3600" vehsPerHour="15.88" departLane="best" departPos="random" departSpeed="0" from="34241530#0" to="198876042#0"/>
  <flow id="car_34241530#0_193253427#0_000aa692" type="car" begin="0" end="3600" vehsPerHour="14.87" departLane="best" departPos="random" departSpeed="0" from="34241530#0" to="193253427#0"/>
  <flow id="car_34241530#0_198876043#2_000aa692" type="car" begin="0" end="3600" vehsPerHour="12.25" departLane="best" departPos="random" departSpeed="0" from="34241530#0" to="198876043#2"/>
  <flow id="car_34241530#0_28231434_000aa692" type="car" begin="0" end="3600" vehsPerHour="10.66" departLane="best" departPos="random" departSpeed="0" from="34241530#0" to="28231434"/>
  <flow id="car_34241530#0_23241821#0_000aa692" type="car" begin="0" end="3600" vehsPerHour="7.91" departLane="best" departPos="random" departSpeed="0" from="34241530#0" to="23241821#0"/>
  <flow id="motorcycle_34241530#0_198876042#0_000aa692" type="motorcycle" begin="0" end="3600" vehsPerHour="49.35" departLane="best" departPos="random" departSpeed="0" from="34241530#0" to="198876042#0"/>
  <flow id="motorcycle_34241530#0_193253427#0_000aa692" type="motorcycle" begin="0" end="3600" vehsPerHour="43.40" departLane="best" departPos="random" departSpeed="0" from="34241530#0" to="193253427#0"/>
  <flow id="motorcycle_34241530#0_198876043#2_000aa692" type="motorcycle" begin="0" end="3600" vehsPerHour="37.09" departLane="best" departPos="random" departSpeed="0" from="34241530#0" to="198876043#2"/>
  <flow id="motorcycle_34241530#0_28231434_000aa692" type="motorcycle" begin="0" end="3600" vehsPerHour="34.74" departLane="best" departPos="random" departSpeed="0" from="34241530#0" to="28231434"/>
  <flow id="motorcycle_34241530#0_23241821#0_000aa692" type="motorcycle" begin="0" end="3600" vehsPerHour="29.36" departLane="best" departPos="random" departSpeed="0" from="34241530#0" to="23241821#0"/>
  <flow id="truck_34241530#0_198876042#0_000aa692" type="truck" begin="0" end="3600" vehsPerHour="7.14" departLane="best" departPos="random" departSpeed="0" from="34241530#0" to="198876042#0"/>
</routes>
