<routes>
<vType id="car" vClass="passenger" accel="2.6" decel="4.5" sigma="0.5" length="5.0" maxSpeed="13.9"/>
<vType id="motorcycle" vClass="motorcycle" accel="3.0" decel="5.0" sigma="0.5" length="2.0" maxSpeed="14.0"/>
<vType id="truck" vClass="truck" accel="1.2" decel="3.5" sigma="0.5" length="12.0" maxSpeed="10.0"/>

  <flow id="car_222682222#1_193253427#0_0006f480" type="car" begin="0" end="3600" vehsPerHour="37.82" departLane="best" departPos="random" departSpeed="0" from="222682222#1" to="193253427#0"/>
  <flow id="car_222682222#1_198876043#0_0006f480" type="car" begin="0" end="3600" vehsPerHour="30.32" departLane="best" departPos="random" departSpeed="0" from="222682222#1" to="198876043#0"/>
  <flow id="car_222682222#1_28231434_0006f480" type="car" begin="0" end="3600" vehsPerHour="31.60" departLane="best" departPos="random" departSpeed="0" from="222682222#1" to="28231434"/>
  <flow id="car_222682222#1_23241821#0_0006f480" type="car" begin="0" end="3600" vehsPerHour="25.39" departLane="best" departPos="random" departSpeed="0" from="222682222#1" to="23241821#0"/>
  <flow id="car_222682222#1_198876042#0_0006f480" type="car" begin="0" end="3600" vehsPerHour="21.53" departLane="best" departPos="random" departSpeed="0" from="222682222#1" to="198876042#0"/>
  <flow id="motorcycle_222682222#1_193253427#0_0006f480" type="motorcycle" begin="0" end="3600" vehsPerHour="104.09" departLane="best" departPos="random" departSpeed="0" from="222682222#1" to="193253427#0"/>
  <flow id="motorcycle_222682222#1_198876043#0_0006f480" type="motorcycle" begin="0" end="3600" vehsPerHour="91.03" departLane="best" departPos="random" departSpeed="0" from="222682222#1" to="198876043#0"/>
  <flow id="motorcycle_222682222#1_28231434_0006f480" type="motorcycle" begin="0" end="3600" vehsPerHour="91.43" departLane="best" departPos="random" departSpeed="0" from="222682222#1" to="28231434"/>
  <flow id="motorcycle_222682222#1_23241821#0_0006f480" type="motorcycle" begin="0" end="3600" vehsPerHour="72.79" departLane="best" departPos="random" departSpeed="0" from="222682222#1" to="23241821#0"/>
  <flow id="motorcycle_222682222#1_198876042#0_0006f480" type="motorcycle" begin="0" end="3600" vehsPerHour="59.18" departLane="best" departPos="random" departSpeed="0" from="222682222#1" to="198876042#0"/>
  <flow id="car_193253433#2_198876043#0_0006f480" type="car" begin="0" end="3600" vehsPerHour="24.15" departLane="best" departPos="random" departSpeed="0" from="193253433#2" to="198876043#0"/>
  <flow id="car_193253433#2_28231434_0006f480" type="car" begin="0" end="3600" vehsPerHour="20.63" departLane="best" departPos="random" departSpeed="0" from="193253433#2" to="28231434"/>
  <flow id="car_193253433#2_23241821#0_0006f480" type="car" begin="0" end="3600" vehsPerHour="21.47" departLane="best" departPos="random" departSpeed="0" from="193253433#2" to="23241821#0"/>
  <flow id="car_193253433#2_198876042#0_0006f480" type="car" begin="0" end="3600" vehsPerHour="16.44" departLane="best" departPos="random" departSpeed="0" from="193253433#2" to="198876042#0"/>
  <flow id="car_193253433#2_193253427#0_0006f480" type="car" begin="0" end="3600" vehsPerHour="14.77" departLane="best" departPos="random" departSpeed="0" from="193253433#2" to="193253427#0"/>
  <flow id="motorcycle_193253433#2_198876043#0_0006f480" type="motorcycle" begin="0" end="3600" vehsPerHour="70.41" departLane="best" departPos="random" departSpeed="0" from="193253433#2" to="198876043#0"/>
  <flow id="motorcycle_193253433#2_28231434_0006f480" type="motorcycle" begin="0" end="3600" vehsPerHour="61.66" departLane="best" departPos="random" departSpeed="0" from="193253433#2" to="28231434"/>
  <flow id="motorcycle_193253433#2_23241821#0_0006f480" type="motorcycle" begin="0" end="3600" vehsPerHour="55.44" departLane="best" departPos="random" departSpeed="0" from="193253433#2" to="23241821#0"/>
  <flow id="motorcycle_193253433#2_198876042#0_0006f480" type="motorcycle" begin="0" end="3600" vehsPerHour="47.58" departLane="best" departPos="random" departSpeed="0" from="193253433#2" to="198876042#0"/>
  <flow id="motorcycle_193253433#2_193253427#0_0006f480" type="motorcycle" begin="0" end="3600" vehsPerHour="40.84" departLane="best" departPos="random" departSpeed="0" from="193253433#2" to="193253427#0"/>
  <flow id="car_198876045#1_28231434_0006f480" type="car" begin="0" end="3600" vehsPerHour="20.56" departLane="best" departPos="random" departSpeed="0" from="198876045#1" to="28231434"/>
  <flow id="car_198876045#1_23241821#0_0006f480" type="car" begin="0" end="3600" vehsPerHour="18.48" departLane="best" departPos="random" departSpeed="0" from="198876045#1" to="23241821#0"/>
  <flow id="car_198876045#1_198876042#0_0006f480" type="car" begin="0" end="3600" vehsPerHour="16.56" departLane="best" departPos="random" departSpeed="0" from="198876045#1" to="198876042#0"/>
  <flow id="car_198876045#1_193253427#0_0006f480" type="car" begin="0" end="3600" vehsPerHour="14.93" departLane="best" departPos="random" departSpeed="0" from="198876045#1" to="193253427#0"/>
  <flow id="car_198876045#1_198876043#2_0006f480" type="car" begin="0" end="3600" vehsPerHour="12.79" departLane="best" departPos="random" departSpeed="0" from="198876045#1" to="198876043#2"/>
  <flow id="motorcycle_198876045#1_28231434_0006f480" type="motorcycle" begin="0" end="3600" vehsPerHour="63.55" departLane="best" departPos="random" departSpeed="0" from="198876045#1" to="28231434"/>
  <flow id="motorcycle_198876045#1_23241821#0_0006f480" type="motorcycle" begin="0" end="3600" vehsPerHour="55.88" departLane="best" departPos="random" departSpeed="0" from="198876045#1" to="23241821#0"/>
  <flow id="motorcycle_198876045#1_198876042#0_0006f480" type="motorcycle" begin="0" end="3600" vehsPerHour="50.21" departLane="best" departPos="random" departSpeed="0" from="198876045#1" to="198876042#0"/>
  <flow id="motorcycle_198876045#1_193253427#0_0006f480" type="motorcycle" begin="0" end="3600" vehsPerHour="45.40" departLane="best" departPos="random" departSpeed="0" from="198876045#1" to="193253427#0"/>
  <flow id="motorcycle_198876045#1_198876043#2_0006f480" type="motorcycle" begin="0" end="3600" vehsPerHour="42.78" departLane="best" departPos="random" departSpeed="0" from="198876045#1" to="198876043#2"/>
  <flow id="car_-28231434_23241821#0_0006f480" type="car" begin="0" end="3600" vehsPerHour="14.98" departLane="best" departPos="random" departSpeed="0" from="-28231434" to="23241821#0"/>
  <flow id="car_-28231434_198876042#0_0006f480" type="car" begin="0" end="3600" vehsPerHour="11.86" departLane="best" departPos="random" departSpeed="0" from="-28231434" to="198876042#0"/>
  <flow id="car_-28231434_193253427#0_0006f480" type="car" begin="0" end="3600" vehsPerHour="10.51" departLane="best" departPos="random" departSpeed="0" from="-28231434" to="193253427#0"/>
  <flow id="car_-28231434_198876043#2_0006f480" type="car" begin="0" end="3600" vehsPerHour="9.97" departLane="best" departPos="random" departSpeed="0" from="-28231434" to="198876043#2"/>
  <flow id="car_-28231434_28231434_0006f480" type="car" begin="0" end="3600" vehsPerHour="8.45" departLane="best" departPos="random" departSpeed="0" from="-28231434" to="28231434"/>
  <flow id="motorcycle_-28231434_23241821#0_0006f480" type="motorcycle" begin="0" end="3600" vehsPerHour="40.89" departLane="best" departPos="random" departSpeed="0" from="-28231434" to="23241821#0"/>
  <flow id="motorcycle_-28231434_198876042#0_0006f480" type="motorcycle" begin="0" end="3600" vehsPerHour="37.72" departLane="best" departPos="random" departSpeed="0" from="-28231434" to="198876042#0"/>
  <flow id="motorcycle_-28231434_193253427#0_0006f480" type="motorcycle" begin="0" end="3600" vehsPerHour="33.59" departLane="best" departPos="random" departSpeed="0" from="-28231434" to="193253427#0"/>
  <flow id="motorcycle_-28231434_198876043#2_0006f480" type="motorcycle" begin="0" end="3600" vehsPerHour="28.30" departLane="best" departPos="random" departSpeed="0" from="-28231434" to="198876043#2"/>
  <flow id="motorcycle_-28231434_28231434_0006f480" type="motorcycle" begin="0" end="3600" vehsPerHour="25.45" departLane="best" departPos="random" departSpeed="0" from="-28231434" to="28231434"/>
  <flow id="car_-55029244#0_198876042#0_0006f480" type="car" begin="0" end="3600" vehsPerHour="17.29" departLane="best" departPos="random" departSpeed="0" from="-55029244#0" to="198876042#0"/>
  <flow id="car_-55029244#0_193253427#0_0006f480" type="car" begin="0" end="3600" vehsPerHour="14.76" departLane="best" departPos="random" departSpeed="0" from="-55029244#0" to="193253427#0"/>
  <flow id="car_-55029244#0_198876043#2_0006f480" type="car" begin="0" end="3600" vehsPerHour="12.31" departLane="best" departPos="random" departSpeed="0" from="-55029244#0" to="198876043#2"/>
  <flow id="car_-55029244#0_28231434_0006f480" type="car" begin="0" end="3600" vehsPerHour="10.69" departLane="best" departPos="random" departSpeed="0" from="-55029244#0" to="28231434"/>
  <flow id="car_-55029244#0_23241821#0_0006f480" type="car" begin="0" end="3600" vehsPerHour="8.58" departLane="best" departPos="random" departSpeed="0" from="-55029244#0" to="23241821#0"/>
  <flow id="motorcycle_-55029244#0_198876042#0_0006f480" type="motorcycle" begin="0" end="3600" vehsPerHour="48.83" departLane="best" departPos="random" departSpeed="0" from="-55029244#0" to="198876042#0"/>
  <flow id="motorcycle_-55029244#0_193253427#0_0006f480" type="motorcycle" begin="0" end="3600" vehsPerHour="42.87" departLane="best" departPos="random" departSpeed="0" from="-55029244#0" to="193253427#0"/>
  <flow id="motorcycle_-55029244#0_198876043#2_0006f480" type="motorcycle" begin="0" end="3600" vehsPerHour="36.85" departLane="best" departPos="random" departSpeed="0" from="-55029244#0" to="198876043#2"/>
  <flow id="motorcycle_-55029244#0_28231434_0006f480" type="motorcycle" begin="0" end="3600" vehsPerHour="34.43" departLane="best" departPos="random" departSpeed="0" from="-55029244#0" to="28231434"/>
  <flow id="motorcycle_-55029244#0_23241821#0_0006f480" type="motorcycle" begin="0" end="3600" vehsPerHour="28.06" departLane="best" departPos="random" departSpeed="0" from="-55029244#0" to="23241821#0"/>
  <flow id="car_34241530#0_198876042#0_0006f480" type="car" begin="0" end="3600" vehsPerHour="16.52" departLane="best" departPos="random" departSpeed="0" from="34241530#0" to="198876042#0"/>
  <flow id="car_34241530#0_193253427#0_0006f480" type="car" begin="0" end="3600" vehsPerHour="14.98" departLane="best" departPos="random" departSpeed="0" from="34241530#0" to="193253427#0"/>
  <flow id="car_34241530#0_198876043#2_0006f480" type="car" begin="0" end="3600" vehsPerHour="12.14" departLane="best" departPos="random" departSpeed="0" from="34241530#0" to="198876043#2"/>
  <flow id="car_34241530#0_28231434_0006f480" type="car" begin="0" end="3600" vehsPerHour="9.93" departLane="best" departPos="random" departSpeed="0" from="34241530#0" to="28231434"/>
  <flow id="car_34241530#0_23241821#0_0006f480" type="car" begin="0" end="3600" vehsPerHour="8.22" departLane="best" departPos="random" departSpeed="0" from="34241530#0" to="23241821#0"/>
  <flow id="motorcycle_34241530#0_198876042#0_0006f480" type="motorcycle" begin="0" end="3600" vehsPerHour="47.38" departLane="best" departPos="random" departSpeed="0" from="34241530#0" to="198876042#0"/>
  <flow id="motorcycle_34241530#0_193253427#0_0006f480" type="motorcycle" begin="0" end="3600" vehsPerHour="43.52" departLane="best" departPos="random" departSpeed="0" from="34241530#0" to="193253427#0"/>
  <flow id="motorcycle_34241530#0_198876043#2_0006f480" type="motorcycle" begin="0" end="3600" vehsPerHour="36.78" departLane="best" departPos="random" departSpeed="0" from="34241530#0" to="198876043#2"/>
  <flow id="motorcycle_34241530#0_28231434_0006f480" type="motorcycle" begin="0" end="3600" vehsPerHour="33.18" departLane="best" departPos="random" departSpeed="0" from="34241530#0" to="28231434"/>
  <flow id="motorcycle_34241530#0_23241821#0_0006f480" type="motorcycle" begin="0" end="3600" vehsPerHour="30.25" departLane="best" departPos="random" departSpeed="0" from="34241530#0" to="23241821#0"/>
  <flow id="truck_34241530#0_198876042#0_0006f480" type="truck" begin="0" end="3600" vehsPerHour="7.28" departLane="best" departPos="random" departSpeed="0" from="34241530#0" to="198876042#0"/>
</routes>
