<routes>
<vType id="car" vClass="passenger" accel="2.6" decel="4.5" sigma="0.5" length="5.0" maxSpeed="13.9"/>
<vType id="motorcycle" vClass="motorcycle" accel="3.0" decel="5.0" sigma="0.5" length="2.0" maxSpeed="14.0"/>
<vType id="truck" vClass="truck" accel="1.2" decel="3.5" sigma="0.5" length="12.0" maxSpeed="10.0"/>

  <flow id="car_222682222#1_193253427#0_00078319" type="car" begin="0" end="3600" vehsPerHour="37.78" departLane="best" departPos="random" departSpeed="0" from="222682222#1" to="193253427#0"/>
  <flow id="car_222682222#1_198876043#0_00078319" type="car" begin="0" end="3600" vehsPerHour="31.88" departLane="best" departPos="random" departSpeed="0" from="222682222#1" to="198876043#0"/>
  <flow id="car_222682222#1_28231434_00078319" type="car" begin="0" end="3600" vehsPerHour="29.69" departLane="best" departPos="random" departSpeed="0" from="222682222#1" to="28231434"/>
  <flow id="car_222682222#1_23241821#0_00078319" type="car" begin="0" end="3600" vehsPerHour="25.74" departLane="best" departPos="random" departSpeed="0" from="222682222#1" to="23241821#0"/>
  <flow id="car_222682222#1_198876042#0_00078319" type="car" begin="0" end="3600" vehsPerHour="19.87" departLane="best" departPos="random" departSpeed="0" from="222682222#1" to="198876042#0"/>
  <flow id="motorcycle_222682222#1_193253427#0_00078319" type="motorcycle" begin="0" end="3600" vehsPerHour="112.12" departLane="best" departPos="random" departSpeed="0" from="222682222#1" to="193253427#0"/>
  <flow id="motorcycle_222682222#1_198876043#0_00078319" type="motorcycle" begin="0" end="3600" vehsPerHour="93.41" departLane="best" departPos="random" departSpeed="0" from="222682222#1" to="198876043#0"/>
  <flow id="motorcycle_222682222#1_28231434_00078319" type="motorcycle" begin="0" end="3600" vehsPerHour="90.35" departLane="best" departPos="random" departSpeed="0" from="222682222#1" to="28231434"/>
  <flow id="motorcycle_222682222#1_23241821#0_00078319" type="motorcycle" begin="0" end="3600" vehsPerHour="73.27" departLane="best" departPos="random" departSpeed="0" from="222682222#1" to="23241821#0"/>
  <flow id="motorcycle_222682222#1_198876042#0_00078319" type="motorcycle" begin="0" end="3600" vehsPerHour="61.81" departLane="best" departPos="random" departSpeed="0" from="222682222#1" to="198876042#0"/>
  <flow id="car_193253433#2_198876043#0_00078319" type="car" begin="0" end="3600" vehsPerHour="24.15" departLane="best" departPos="random" departSpeed="0" from="193253433#2" to="198876043#0"/>
  <flow id="car_193253433#2_28231434_00078319" type="car" begin="0" end="3600" vehsPerHour="20.76" departLane="best" departPos="random" departSpeed="0" from="193253433#2" to="28231434"/>
  <flow id="car_193253433#2_23241821#0_00078319" type="car" begin="0" end="3600" vehsPerHour="20.62" departLane="best" departPos="random" departSpeed="0" from="193253433#2" to="23241821#0"/>
  <flow id="car_193253433#2_198876042#0_00078319" type="car" begin="0" end="3600" vehsPerHour="17.13" departLane="best" departPos="random" departSpeed="0" from="193253433#2" to="198876042#0"/>
  <flow id="car_193253433#2_193253427#0_00078319" type="car" begin="0" end="3600" vehsPerHour="14.31" departLane="best" departPos="random" departSpeed="0" from="193253433#2" to="193253427#0"/>
  <flow id="motorcycle_193253433#2_198876043#0_00078319" type="motorcycle" begin="0" end="3600" vehsPerHour="68.07" departLane="best" departPos="random" departSpeed="0" from="193253433#2" to="198876043#0"/>
  <flow id="motorcycle_193253433#2_28231434_00078319" type="motorcycle" begin="0" end="3600" vehsPerHour="59.90" departLane="best" departPos="random" departSpeed="0" from="193253433#2" to="28231434"/>
  <flow id="motorcycle_193253433#2_23241821#0_00078319" type="motorcycle" begin="0" end="3600" vehsPerHour="56.16" departLane="best" departPos="random" departSpeed="0" from="193253433#2" to="23241821#0"/>
  <flow id="motorcycle_193253433#2_198876042#0_00078319" type="motorcycle" begin="0" end="3600" vehsPerHour="51.94" departLane="best" departPos="random" departSpeed="0" from="193253433#2" to="198876042#0"/>
  <flow id="motorcycle_193253433#2_193253427#0_00078319" type="motorcycle" begin="0" end="3600" vehsPerHour="42.60" departLane="best" departPos="random" departSpeed="0" from="193253433#2" to="193253427#0"/>
  <flow id="car_198876045#1_28231434_00078319" type="car" begin="0" end="3600" vehsPerHour="20.27" departLane="best" departPos="random" departSpeed="0" from="198876045#1" to="28231434"/>
  <flow id="car_198876045#1_23241821#0_00078319" type="car" begin="0" end="3600" vehsPerHour="17.80" departLane="best" departPos="random" departSpeed="0" from="198876045#1" to="23241821#0"/>
  <flow id="car_198876045#1_198876042#0_00078319" type="car" begin="0" end="3600" vehsPerHour="16.18" departLane="best" departPos="random" departSpeed="0" from="198876045#1" to="198876042#0"/>
  <flow id="car_198876045#1_193253427#0_00078319" type="car" begin="0" end="3600" vehsPerHour="14.99" departLane="best" departPos="random" departSpeed="0" from="198876045#1" to="193253427#0"/>
  <flow id="car_198876045#1_198876043#2_00078319" type="car" begin="0" end="3600" vehsPerHour="12.94" departLane="best" departPos="random" departSpeed="0" from="198876045#1" to="198876043#2"/>
  <flow id="motorcycle_198876045#1_28231434_00078319" type="motorcycle" begin="0" end="3600" vehsPerHour="59.71" departLane="best" departPos="random" departSpeed="0" from="198876045#1" to="28231434"/>
  <flow id="motorcycle_198876045#1_23241821#0_00078319" type="motorcycle" begin="0" end="3600" vehsPerHour="53.54" departLane="best" departPos="random" departSpeed="0" from="198876045#1" to="23241821#0"/>
  <flow id="motorcycle_198876045#1_198876042#0_00078319" type="motorcycle" begin="0" end="3600" vehsPerHour="49.70" departLane="best" departPos="random" departSpeed="0" from="198876045#1" to="198876042#0"/>
  <flow id="motorcycle_198876045#1_193253427#0_00078319" type="motorcycle" begin="0" end="3600" vehsPerHour="44.73" departLane="best" departPos="random" departSpeed="0" from="198876045#1" to="193253427#0"/>
  <flow id="motorcycle_198876045#1_198876043#2_00078319" type="motorcycle" begin="0" end="3600" vehsPerHour="39.60" departLane="best" departPos="random" departSpeed="0" from="198876045#1" to="198876043#2"/>
  <flow id="car_-28231434_23241821#0_00078319" type="car" begin="0" end="3600" vehsPerHour="15.13" departLane="best" departPos="random" departSpeed="0" from="-28231434" to="23241821#0"/>
  <flow id="car_-28231434_198876042#0_00078319" type="car" begin="0" end="3600" vehsPerHour="12.08" departLane="best" departPos="random" departSpeed="0" from="-28231434" to="198876042#0"/>
  <flow id="car_-28231434_193253427#0_00078319" type="car" begin="0" end="3600" vehsPerHour="10.54" departLane="best" departPos="random" departSpeed="0" from="-28231434" to="193253427#0"/>
  <flow id="car_-28231434_198876043#2_00078319" type="car" begin="0" end="3600" vehsPerHour="10.54" departLane="best" departPos="random" departSpeed="0" from="-28231434" to="198876043#2"/>
  <flow id="car_-28231434_28231434_00078319" type="car" begin="0" end="3600" vehsPerHour="8.69" departLane="best" departPos="random" departSpeed="0" from="-28231434" to="28231434"/>
  <flow id="motorcycle_-28231434_23241821#0_00078319" type="motorcycle" begin="0" end="3600" vehsPerHour="41.47" departLane="best" departPos="random" departSpeed="0" from="-28231434" to="23241821#0"/>
  <flow id="motorcycle_-28231434_198876042#0_00078319" type="motorcycle" begin="0" end="3600" vehsPerHour="37.53" departLane="best" departPos="random" departSpeed="0" from="-28231434" to="198876042#0"/>
  <flow id="motorcycle_-28231434_193253427#0_00078319" type="motorcycle" begin="0" end="3600" vehsPerHour="31.76" departLane="best" departPos="random" departSpeed="0" from="-28231434" to="193253427#0"/>
  <flow id="motorcycle_-28231434_198876043#2_00078319" type="motorcycle" begin="0" end="3600" vehsPerHour="29.36" departLane="best" departPos="random" departSpeed="0" from="-28231434" to="198876043#2"/>
  <flow id="motorcycle_-28231434_28231434_00078319" type="motorcycle" begin="0" end="3600" vehsPerHour="24.73" departLane="best" departPos="random" departSpeed="0" from="-28231434" to="28231434"/>
  <flow id="car_-55029244#0_198876042#0_00078319" type="car" begin="0" end="3600" vehsPerHour="17.42" departLane="best" departPos="random" departSpeed="0" from="-55029244#0" to="198876042#0"/>
  <flow id="car_-55029244#0_193253427#0_00078319" type="car" begin="0" end="3600" vehsPerHour="14.31" departLane="best" departPos="random" departSpeed="0" from="-55029244#0" to="193253427#0"/>
  <flow id="car_-55029244#0_198876043#2_00078319" type="car" begin="0" end="3600" vehsPerHour="12.75" departLane="best" departPos="random" departSpeed="0" from="-55029244#0" to="198876043#2"/>
  <flow id="car_-55029244#0_28231434_00078319" type="car" begin="0" end="3600" vehsPerHour="10.79" departLane="best" departPos="random" departSpeed="0" from="-55029244#0" to="28231434"/>
  <flow id="car_-55029244#0_23241821#0_00078319" type="car" begin="0" end="3600" vehsPerHour="8.60" departLane="best" departPos="random" departSpeed="0" from="-55029244#0" to="23241821#0"/>
  <flow id="motorcycle_-55029244#0_198876042#0_00078319" type="motorcycle" begin="0" end="3600" vehsPerHour="50.87" departLane="best" departPos="random" departSpeed="0" from="-55029244#0" to="198876042#0"/>
  <flow id="motorcycle_-55029244#0_193253427#0_00078319" type="motorcycle" begin="0" end="3600" vehsPerHour="40.19" departLane="best" departPos="random" departSpeed="0" from="-55029244#0" to="193253427#0"/>
  <flow id="motorcycle_-55029244#0_198876043#2_00078319" type="motorcycle" begin="0" end="3600" vehsPerHour="38.78" departLane="best" departPos="random" departSpeed="0" from="-55029244#0" to="198876043#2"/>
  <flow id="motorcycle_-55029244#0_28231434_00078319" type="motorcycle" begin="0" end="3600" vehsPerHour="32.14" departLane="best" departPos="random" departSpeed="0" from="-55029244#0" to="28231434"/>
  <flow id="motorcycle_-55029244#0_23241821#0_00078319" type="motorcycle" begin="0" end="3600" vehsPerHour="30.18" departLane="best" departPos="random" departSpeed="0" from="-55029244#0" to="23241821#0"/>
  <flow id="car_34241530#0_198876042#0_00078319" type="car" begin="0" end="3600" vehsPerHour="17.19" departLane="best" departPos="random" departSpeed="0" from="34241530#0" to="198876042#0"/>
  <flow id="car_34241530#0_193253427#0_00078319" type="car" begin="0" end="3600" vehsPerHour="14.21" departLane="best" departPos="random" departSpeed="0" from="34241530#0" to="193253427#0"/>
  <flow id="car_34241530#0_198876043#2_00078319" type="car" begin="0" end="3600" vehsPerHour="12.95" departLane="best" departPos="random" departSpeed="0" from="34241530#0" to="198876043#2"/>
  <flow id="car_34241530#0_28231434_00078319" type="car" begin="0" end="3600" vehsPerHour="10.20" departLane="best" departPos="random" departSpeed="0" from="34241530#0" to="28231434"/>
  <flow id="car_34241530#0_23241821#0_00078319" type="car" begin="0" end="3600" vehsPerHour="8.68" departLane="best" departPos="random" departSpeed="0" from="34241530#0" to="23241821#0"/>
  <flow id="motorcycle_34241530#0_198876042#0_00078319" type="motorcycle" begin="0" end="3600" vehsPerHour="50.36" departLane="best" departPos="random" departSpeed="0" from="34241530#0" to="198876042#0"/>
  <flow id="motorcycle_34241530#0_193253427#0_00078319" type="motorcycle" begin="0" end="3600" vehsPerHour="39.48" departLane="best" departPos="random" departSpeed="0" from="34241530#0" to="193253427#0"/>
  <flow id="motorcycle_34241530#0_198876043#2_00078319" type="motorcycle" begin="0" end="3600" vehsPerHour="35.49" departLane="best" departPos="random" departSpeed="0" from="34241530#0" to="198876043#2"/>
  <flow id="motorcycle_34241530#0_28231434_00078319" type="motorcycle" begin="0" end="3600" vehsPerHour="34.24" departLane="best" departPos="random" departSpeed="0" from="34241530#0" to="28231434"/>
  <flow id="motorcycle_34241530#0_23241821#0_00078319" type="motorcycle" begin="0" end="3600" vehsPerHour="29.53" departLane="best" departPos="random" departSpeed="0" from="34241530#0" to="23241821#0"/>
  <flow id="truck_34241530#0_198876042#0_00078319" type="truck" begin="0" end="3600" vehsPerHour="7.00" departLane="best" departPos="random" departSpeed="0" from="34241530#0" to="198876042#0"/>
</routes>
