<routes>
<vType id="car" vClass="passenger" accel="2.6" decel="4.5" sigma="0.5" length="5.0" maxSpeed="13.9"/>
<vType id="motorcycle" vClass="motorcycle" accel="3.0" decel="5.0" sigma="0.5" length="2.0" maxSpeed="14.0"/>
<vType id="truck" vClass="truck" accel="1.2" decel="3.5" sigma="0.5" length="12.0" maxSpeed="10.0"/>

  <flow id="car_222682222#1_193253427#0_000d26ba" type="car" begin="0" end="3600" vehsPerHour="35.96" departLane="best" departPos="random" departSpeed="0" from="222682222#1" to="193253427#0"/>
  <flow id="car_222682222#1_198876043#0_000d26ba" type="car" begin="0" end="3600" vehsPerHour="30.18" departLane="best" departPos="random" departSpeed="0" from="222682222#1" to="198876043#0"/>
  <flow id="car_222682222#1_28231434_000d26ba" type="car" begin="0" end="3600" vehsPerHour="31.44" departLane="best" departPos="random" departSpeed="0" from="222682222#1" to="28231434"/>
  <flow id="car_222682222#1_23241821#0_000d26ba" type="car" begin="0" end="3600" vehsPerHour="24.90" departLane="best" departPos="random" departSpeed="0" from="222682222#1" to="23241821#0"/>
  <flow id="car_222682222#1_198876042#0_000d26ba" type="car" begin="0" end="3600" vehsPerHour="21.75" departLane="best" departPos="random" departSpeed="0" from="222682222#1" to="198876042#0"/>
  <flow id="motorcycle_222682222#1_193253427#0_000d26ba" type="motorcycle" begin="0" end="3600" vehsPerHour="103.33" departLane="best" departPos="random" departSpeed="0" from="222682222#1" to="193253427#0"/>
  <flow id="motorcycle_222682222#1_198876043#0_000d26ba" type="motorcycle" begin="0" end="3600" vehsPerHour="90.78" departLane="best" departPos="random" departSpeed="0" from="222682222#1" to="198876043#0"/>
  <flow id="motorcycle_222682222#1_28231434_000d26ba" type="motorcycle" begin="0" end="3600" vehsPerHour="87.40" departLane="best" departPos="random" departSpeed="0" from="222682222#1" to="28231434"/>
  <flow id="motorcycle_222682222#1_23241821#0_000d26ba" type="motorcycle" begin="0" end="3600" vehsPerHour="67.98" departLane="best" departPos="random" departSpeed="0" from="222682222#1" to="23241821#0"/>
  <flow id="motorcycle_222682222#1_198876042#0_000d26ba" type="motorcycle" begin="0" end="3600" vehsPerHour="64.29" departLane="best" departPos="random" departSpeed="0" from="222682222#1" to="198876042#0"/>
  <flow id="car_193253433#2_198876043#0_000d26ba" type="car" begin="0" end="3600" vehsPerHour="24.18" departLane="best" departPos="random" departSpeed="0" from="193253433#2" to="198876043#0"/>
  <flow id="car_193253433#2_28231434_000d26ba" type="car" begin="0" end="3600" vehsPerHour="21.19" departLane="best" departPos="random" departSpeed="0" from="193253433#2" to="28231434"/>
  <flow id="car_193253433#2_23241821#0_000d26ba" type="car" begin="0" end="3600" vehsPerHour="21.74" departLane="best" departPos="random" departSpeed="0" from="193253433#2" to="23241821#0"/>
  <flow id="car_193253433#2_198876042#0_000d26ba" type="car" begin="0" end="3600" vehsPerHour="16.32" departLane="best" departPos="random" departSpeed="0" from="193253433#2" to="198876042#0"/>
  <flow id="car_193253433#2_193253427#0_000d26ba" type="car" begin="0" end="3600" vehsPerHour="14.33" departLane="best" departPos="random" departSpeed="0" from="193253433#2" to="193253427#0"/>
  <flow id="motorcycle_193253433#2_198876043#0_000d26ba" type="motorcycle" begin="0" end="3600" vehsPerHour="73.81" departLane="best" departPos="random" departSpeed="0" from="193253433#2" to="198876043#0"/>
  <flow id="motorcycle_193253433#2_28231434_000d26ba" type="motorcycle" begin="0" end="3600" vehsPerHour="64.25" departLane="best" departPos="random" departSpeed="0" from="193253433#2" to="28231434"/>
  <flow id="motorcycle_193253433#2_23241821#0_000d26ba" type="motorcycle" begin="0" end="3600" vehsPerHour="60.23" departLane="best" departPos="random" departSpeed="0" from="193253433#2" to="23241821#0"/>
  <flow id="motorcycle_193253433#2_198876042#0_000d26ba" type="motorcycle" begin="0" end="3600" vehsPerHour="49.88" departLane="best" departPos="random" departSpeed="0" from="193253433#2" to="198876042#0"/>
  <flow id="motorcycle_193253433#2_193253427#0_000d26ba" type="motorcycle" begin="0" end="3600" vehsPerHour="41.18" departLane="best" departPos="random" departSpeed="0" from="193253433#2" to="193253427#0"/>
  <flow id="car_198876045#1_28231434_000d26ba" type="car" begin="0" end="3600" vehsPerHour="20.02" departLane="best" departPos="random" departSpeed="0" from="198876045#1" to="28231434"/>
  <flow id="car_198876045#1_23241821#0_000d26ba" type="car" begin="0" end="3600" vehsPerHour="17.75" departLane="best" departPos="random" departSpeed="0" from="198876045#1" to="23241821#0"/>
  <flow id="car_198876045#1_198876042#0_000d26ba" type="car" begin="0" end="3600" vehsPerHour="15.83" departLane="best" departPos="random" departSpeed="0" from="198876045#1" to="198876042#0"/>
  <flow id="car_198876045#1_193253427#0_000d26ba" type="car" begin="0" end="3600" vehsPerHour="13.99" departLane="best" departPos="random" departSpeed="0" from="198876045#1" to="193253427#0"/>
  <flow id="car_198876045#1_198876043#2_000d26ba" type="car" begin="0" end="3600" vehsPerHour="12.93" departLane="best" departPos="random" departSpeed="0" from="198876045#1" to="198876043#2"/>
  <flow id="motorcycle_198876045#1_28231434_000d26ba" type="motorcycle" begin="0" end="3600" vehsPerHour="61.33" departLane="best" departPos="random" departSpeed="0" from="198876045#1" to="28231434"/>
  <flow id="motorcycle_198876045#1_23241821#0_000d26ba" type="motorcycle" begin="0" end="3600" vehsPerHour="54.08" departLane="best" departPos="random" departSpeed="0" from="198876045#1" to="23241821#0"/>
  <flow id="motorcycle_198876045#1_198876042#0_000d26ba" type="motorcycle" begin="0" end="3600" vehsPerHour="48.53" departLane="best" departPos="random" departSpeed="0" from="198876045#1" to="198876042#0"/>
  <flow id="motorcycle_198876045#1_193253427#0_000d26ba" type="motorcycle" begin="0" end="3600" vehsPerHour="46.46" departLane="best" departPos="random" departSpeed="0" from="198876045#1" to="193253427#0"/>
  <flow id="motorcycle_198876045#1_198876043#2_000d26ba" type="motorcycle" begin="0" end="3600" vehsPerHour="40.69" departLane="best" departPos="random" departSpeed="0" from="198876045#1" to="198876043#2"/>
  <flow id="car_-28231434_23241821#0_000d26ba" type="car" begin="0" end="3600" vehsPerHour="13.96" departLane="best" departPos="random" departSpeed="0" from="-28231434" to="23241821#0"/>
  <flow id="car_-28231434_198876042#0_000d26ba" type="car" begin="0" end="3600" vehsPerHour="12.29" departLane="best" departPos="random" departSpeed="0" from="-28231434" to="198876042#0"/>
  <flow id="car_-28231434_193253427#0_000d26ba" type="car" begin="0" end="3600" vehsPerHour="10.85" departLane="best" departPos="random" departSpeed="0" from="-28231434" to="193253427#0"/>
  <flow id="car_-28231434_198876043#2_000d26ba" type="car" begin="0" end="3600" vehsPerHour="10.85" departLane="best" departPos="random" departSpeed="0" from="-28231434" to="198876043#2"/>
  <flow id="car_-28231434_28231434_000d26ba" type="car" begin="0" end="3600" vehsPerHour="8.44" departLane="best" departPos="random" departSpeed="0" from="-28231434" to="28231434"/>
  <flow id="motorcycle_-28231434_23241821#0_000d26ba" type="motorcycle" begin="0" end="3600" vehsPerHour="40.43" departLane="best" departPos="random" departSpeed="0" from="-28231434" to="23241821#0"/>
  <flow id="motorcycle_-28231434_198876042#0_000d26ba" type="motorcycle" begin="0" end="3600" vehsPerHour="36.35" departLane="best" departPos="random" departSpeed="0" from="-28231434" to="198876042#0"/>
  <flow id="motorcycle_-28231434_193253427#0_000d26ba" type="motorcycle" begin="0" end="3600" vehsPerHour="33.08" departLane="best" departPos="random" departSpeed="0" from="-28231434" to="193253427#0"/>
  <flow id="motorcycle_-28231434_198876043#2_000d26ba" type="motorcycle" begin="0" end="3600" vehsPerHour="30.46" departLane="best" departPos="random" departSpeed="0" from="-28231434" to="198876043#2"/>
  <flow id="motorcycle_-28231434_28231434_000d26ba" type="motorcycle" begin="0" end="3600" vehsPerHour="24.54" departLane="best" departPos="random" departSpeed="0" from="-28231434" to="28231434"/>
  <flow id="car_-55029244#0_198876042#0_000d26ba" type="car" begin="0" end="3600" vehsPerHour="17.10" departLane="best" departPos="random" departSpeed="0" from="-55029244#0" to="198876042#0"/>
  <flow id="car_-55029244#0_193253427#0_000d26ba" type="car" begin="0" end="3600" vehsPerHour="14.53" departLane="best" departPos="random" departSpeed="0" from="-55029244#0" to="193253427#0"/>
  <flow id="car_-55029244#0_198876043#2_000d26ba" type="car" begin="0" end="3600" vehsPerHour="12.75" departLane="best" departPos="random" departSpeed="0" from="-55029244#0" to="198876043#2"/>
  <flow id="car_-55029244#0_28231434_000d26ba" type="car" begin="0" end="3600" vehsPerHour="10.81" departLane="best" departPos="random" departSpeed="0" from="-55029244#0" to="28231434"/>
  <flow id="car_-55029244#0_23241821#0_000d26ba" type="car" begin="0" end="3600" vehsPerHour="8.27" departLane="best" departPos="random" departSpeed="0" from="-55029244#0" to="23241821#0"/>
  <flow id="motorcycle_-55029244#0_198876042#0_000d26ba" type="motorcycle" begin="0" end="3600" vehsPerHour="48.08" departLane="best" departPos="random" departSpeed="0" from="-55029244#0" to="198876042#0"/>
  <flow id="motorcycle_-55029244#0_193253427#0_000d26ba" type="motorcycle" begin="0" end="3600" vehsPerHour="41.44" departLane="best" departPos="random" departSpeed="0" from="-55029244#0" to="193253427#0"/>
  <flow id="motorcycle_-55029244#0_198876043#2_000d26ba" type="motorcycle" begin="0" end="3600" vehsPerHour="36.21" departLane="best" departPos="random" departSpeed="0" from="-55029244#0" to="198876043#2"/>
  <flow id="motorcycle_-55029244#0_28231434_000d26ba" type="motorcycle" begin="0" end="3600" vehsPerHour="32.14" departLane="best" departPos="random" departSpeed="0" from="-55029244#0" to="28231434"/>
  <flow id="motorcycle_-55029244#0_23241821#0_000d26ba" type="motorcycle" begin="0" end="3600" vehsPerHour="29.62" departLane="best" departPos="random" departSpeed="0" from="-55029244#0" to="23241821#0"/>
  <flow id="car_34241530#0_198876042#0_000d26ba" type="car" begin="0" end="3600" vehsPerHour="16.86" departLane="best" departPos="random" departSpeed="0" from="34241530#0" to="198876042#0"/>
  <flow id="car_34241530#0_193253427#0_000d26ba" type="car" begin="0" end="3600" vehsPerHour="14.11" departLane="best" departPos="random" departSpeed="0" from="34241530#0" to="193253427#0"/>
  <flow id="car_34241530#0_198876043#2_000d26ba" type="car" begin="0" end="3600" vehsPerHour="11.84" departLane="best" departPos="random" departSpeed="0" from="34241530#0" to="198876043#2"/>
  <flow id="car_34241530#0_28231434_000d26ba" type="car" begin="0" end="3600" vehsPerHour="10.51" departLane="best" departPos="random" departSpeed="0" from="34241530#0" to="28231434"/>
  <flow id="car_34241530#0_23241821#0_000d26ba" type="car" begin="0" end="3600" vehsPerHour="8.63" departLane="best" departPos="random" departSpeed="0" from="34241530#0" to="23241821#0"/>
  <flow id="motorcycle_34241530#0_198876042#0_000d26ba" type="motorcycle" begin="0" end="3600" vehsPerHour="49.66" departLane="best" departPos="random" departSpeed="0" from="34241530#0" to="198876042#0"/>
  <flow id="motorcycle_34241530#0_193253427#0_000d26ba" type="motorcycle" begin="0" end="3600" vehsPerHour="41.81" departLane="best" departPos="random" departSpeed="0" from="34241530#0" to="193253427#0"/>
  <flow id="motorcycle_34241530#0_198876043#2_000d26ba" type="motorcycle" begin="0" end="3600" vehsPerHour="38.56" departLane="best" departPos="random" departSpeed="0" from="34241530#0" to="198876043#2"/>
  <flow id="motorcycle_34241530#0_28231434_000d26ba" type="motorcycle" begin="0" end="3600" vehsPerHour="32.76" departLane="best" departPos="random" departSpeed="0" from="34241530#0" to="28231434"/>
  <flow id="motorcycle_34241530#0_23241821#0_000d26ba" type="motorcycle" begin="0" end="3600" vehsPerHour="29.51" departLane="best" departPos="random" departSpeed="0" from="34241530#0" to="23241821#0"/>
  <flow id="truck_34241530#0_198876042#0_000d26ba" type="truck" begin="0" end="3600" vehsPerHour="7.03" departLane="best" departPos="random" departSpeed="0" from="34241530#0" to="198876042#0"/>
</routes>
