<routes>
<vType id="car" vClass="passenger" accel="2.6" decel="4.5" sigma="0.5" length="5.0" maxSpeed="13.9"/>
<vType id="motorcycle" vClass="motorcycle" accel="3.0" decel="5.0" sigma="0.5" length="2.0" maxSpeed="14.0"/>
<vType id="truck" vClass="truck" accel="1.2" decel="3.5" sigma="0.5" length="12.0" maxSpeed="10.0"/>

  <flow id="car_222682222#1_193253427#0_000e7d5d" type="car" begin="0" end="3600" vehsPerHour="36.71" departLane="best" departPos="random" departSpeed="0" from="222682222#1" to="193253427#0"/>
  <flow id="car_222682222#1_198876043#0_000e7d5d" type="car" begin="0" end="3600" vehsPerHour="30.74" departLane="best" departPos="random" departSpeed="0" from="222682222#1" to="198876043#0"/>
  <flow id="car_222682222#1_28231434_000e7d5d" type="car" begin="0" end="3600" vehsPerHour="30.02" departLane="best" departPos="random" departSpeed="0" from="222682222#1" to="28231434"/>
  <flow id="car_222682222#1_23241821#0_000e7d5d" type="car" begin="0" end="3600" vehsPerHour="25.70" departLane="best" departPos="random" departSpeed="0" from="222682222#1" to="23241821#0"/>
  <flow id="car_222682222#1_198876042#0_000e7d5d" type="car" begin="0" end="3600" vehsPerHour="20.68" departLane="best" departPos="random" departSpeed="0" from="222682222#1" to="198876042#0"/>
  <flow id="motorcycle_222682222#1_193253427#0_000e7d5d" type="motorcycle" begin="0" end="3600" vehsPerHour="103.16" departLane="best" departPos="random" departSpeed="0" from="222682222#1" to="193253427#0"/>
  <flow id="motorcycle_222682222#1_198876043#0_000e7d5d" type="motorcycle" begin="0" end="3600" vehsPerHour="97.80" departLane="best" departPos="random" departSpeed="0" from="222682222#1" to="198876043#0"/>
  <flow id="motorcycle_222682222#1_28231434_000e7d5d" type="motorcycle" begin="0" end="3600" vehsPerHour="87.79" departLane="best" departPos="random" departSpeed="0" from="222682222#1" to="28231434"/>
  <flow id="motorcycle_222682222#1_23241821#0_000e7d5d" type="motorcycle" begin="0" end="3600" vehsPerHour="69.73" departLane="best" departPos="random" departSpeed="0" from="222682222#1" to="23241821#0"/>
  <flow id="motorcycle_222682222#1_198876042#0_000e7d5d" type="motorcycle" begin="0" end="3600" vehsPerHour="59.48" departLane="best" departPos="random" departSpeed="0" from="222682222#1" to="198876042#0"/>
  <flow id="car_193253433#2_198876043#0_000e7d5d" type="car" begin="0" end="3600" vehsPerHour="23.80" departLane="best" departPos="random" departSpeed="0" from="193253433#2" to="198876043#0"/>
  <flow id="car_193253433#2_28231434_000e7d5d" type="car" begin="0" end="3600" vehsPerHour="19.89" departLane="best" departPos="random" departSpeed="0" from="193253433#2" to="28231434"/>
  <flow id="car_193253433#2_23241821#0_000e7d5d" type="car" begin="0" end="3600" vehsPerHour="21.53" departLane="best" departPos="random" departSpeed="0" from="193253433#2" to="23241821#0"/>
  <flow id="car_193253433#2_198876042#0_000e7d5d" type="car" begin="0" end="3600" vehsPerHour="17.41" departLane="best" departPos="random" departSpeed="0" from="193253433#2" to="198876042#0"/>
  <flow id="car_193253433#2_193253427#0_000e7d5d" type="car" begin="0" end="3600" vehsPerHour="14.68" departLane="best" departPos="random" departSpeed="0" from="193253433#2" to="193253427#0"/>
  <flow id="motorcycle_193253433#2_198876043#0_000e7d5d" type="motorcycle" begin="0" end="3600" vehsPerHour="72.61" departLane="best" departPos="random" departSpeed="0" from="193253433#2" to="198876043#0"/>
  <flow id="motorcycle_193253433#2_28231434_000e7d5d" type="motorcycle" begin="0" end="3600" vehsPerHour="63.62" departLane="best" departPos="random" departSpeed="0" from="193253433#2" to="28231434"/>
  <flow id="motorcycle_193253433#2_23241821#0_000e7d5d" type="motorcycle" begin="0" end="3600" vehsPerHour="57.81" departLane="best" departPos="random" departSpeed="0" from="193253433#2" to="23241821#0"/>
  <flow id="motorcycle_193253433#2_198876042#0_000e7d5d" type="motorcycle" begin="0" end="3600" vehsPerHour="49.57" departLane="best" departPos="random" departSpeed="0" from="193253433#2" to="198876042#0"/>
  <flow id="motorcycle_193253433#2_193253427#0_000e7d5d" type="motorcycle" begin="0" end="3600" vehsPerHour="42.04" departLane="best" departPos="random" departSpeed="0" from="193253433#2" to="193253427#0"/>
  <flow id="car_198876045#1_28231434_000e7d5d" type="car" begin="0" end="3600" vehsPerHour="20.10" departLane="best" departPos="random" departSpeed="0" from="198876045#1" to="28231434"/>
  <flow id="car_198876045#1_23241821#0_000e7d5d" type="car" begin="0" end="3600" vehsPerHour="19.02" departLane="best" departPos="random" departSpeed="0" from="198876045#1" to="23241821#0"/>
  <flow id="car_198876045#1_198876042#0_000e7d5d" type="car" begin="0" end="3600" vehsPerHour="16.98" departLane="best" departPos="random" departSpeed="0" from="198876045#1" to="198876042#0"/>
  <flow id="car_198876045#1_193253427#0_000e7d5d" type="car" begin="0" end="3600" vehsPerHour="15.15" departLane="best" departPos="random" departSpeed="0" from="198876045#1" to="193253427#0"/>
  <flow id="car_198876045#1_198876043#2_000e7d5d" type="car" begin="0" end="3600" vehsPerHour="12.18" departLane="best" departPos="random" departSpeed="0" from="198876045#1" to="198876043#2"/>
  <flow id="motorcycle_198876045#1_28231434_000e7d5d" type="motorcycle" begin="0" end="3600" vehsPerHour="62.12" departLane="best" departPos="random" departSpeed="0" from="198876045#1" to="28231434"/>
  <flow id="motorcycle_198876045#1_23241821#0_000e7d5d" type="motorcycle" begin="0" end="3600" vehsPerHour="51.70" departLane="best" departPos="random" departSpeed="0" from="198876045#1" to="23241821#0"/>
  <flow id="motorcycle_198876045#1_198876042#0_000e7d5d" type="motorcycle" begin="0" end="3600" vehsPerHour="47.75" departLane="best" departPos="random" departSpeed="0" from="198876045#1" to="198876042#0"/>
  <flow id="motorcycle_198876045#1_193253427#0_000e7d5d" type="motorcycle" begin="0" end="3600" vehsPerHour="43.68" departLane="best" departPos="random" departSpeed="0" from="198876045#1" to="193253427#0"/>
  <flow id="motorcycle_198876045#1_198876043#2_000e7d5d" type="motorcycle" begin="0" end="3600" vehsPerHour="39.66" departLane="best" departPos="random" departSpeed="0" from="198876045#1" to="198876043#2"/>
  <flow id="car_-28231434_23241821#0_000e7d5d" type="car" begin="0" end="3600" vehsPerHour="15.24" departLane="best" departPos="random" departSpeed="0" from="-28231434" to="23241821#0"/>
  <flow id="car_-28231434_198876042#0_000e7d5d" type="car" begin="0" end="3600" vehsPerHour="12.30" departLane="best" departPos="random" departSpeed="0" from="-28231434" to="198876042#0"/>
  <flow id="car_-28231434_193253427#0_000e7d5d" type="car" begin="0" end="3600" vehsPerHour="10.06" departLane="best" departPos="random" departSpeed="0" from="-28231434" to="193253427#0"/>
  <flow id="car_-28231434_198876043#2_000e7d5d" type="car" begin="0" end="3600" vehsPerHour="10.25" departLane="best" departPos="random" departSpeed="0" from="-28231434" to="198876043#2"/>
  <flow id="car_-28231434_28231434_000e7d5d" type="car" begin="0" end="3600" vehsPerHour="7.91" departLane="best" departPos="random" departSpeed="0" from="-28231434" to="28231434"/>
  <flow id="motorcycle_-28231434_23241821#0_000e7d5d" type="motorcycle" begin="0" end="3600" vehsPerHour="43.01" departLane="best" departPos="random" departSpeed="0" from="-28231434" to="23241821#0"/>
  <flow id="motorcycle_-28231434_198876042#0_000e7d5d" type="motorcycle" begin="0" end="3600" vehsPerHour="38.19" departLane="best" departPos="random" departSpeed="0" from="-28231434" to="198876042#0"/>
  <flow id="motorcycle_-28231434_193253427#0_000e7d5d" type="motorcycle" begin="0" end="3600" vehsPerHour="32.05" departLane="best" departPos="random" departSpeed="0" from="-28231434" to="193253427#0"/>
  <flow id="motorcycle_-28231434_198876043#2_000e7d5d" type="motorcycle" begin="0" end="3600" vehsPerHour="28.04" departLane="best" departPos="random" departSpeed="0" from="-28231434" to="198876043#2"/>
  <flow id="motorcycle_-28231434_28231434_000e7d5d" type="motorcycle" begin="0" end="3600" vehsPerHour="26.08" departLane="best" departPos="random" departSpeed="0" from="-28231434" to="28231434"/>
  <flow id="car_-55029244#0_198876042#0_000e7d5d" type="car" begin="0" end="3600" vehsPerHour="16.87" departLane="best" departPos="random" departSpeed="0" from="-55029244#0" to="198876042#0"/>
  <flow id="car_-55029244#0_193253427#0_000e7d5d" type="car" begin="0" end="3600" vehsPerHour="13.97" departLane="best" departPos="random" departSpeed="0" from="-55029244#0" to="193253427#0"/>
  <flow id="car_-55029244#0_198876043#2_000e7d5d" type="car" begin="0" end="3600" vehsPerHour="12.71" departLane="best" departPos="random" departSpeed="0" from="-55029244#0" to="198876043#2"/>
  <flow id="car_-55029244#0_28231434_000e7d5d" type="car" begin="0" end="3600" vehsPerHour="10.10" departLane="best" departPos="random" departSpeed="0" from="-55029244#0" to="28231434"/>
  <flow id="car_-55029244#0_23241821#0_000e7d5d" type="car" begin="0" end="3600" vehsPerHour="8.24" departLane="best" departPos="random" departSpeed="0" from="-55029244#0" to="23241821#0"/>
  <flow id="motorcycle_-55029244#0_198876042#0_000e7d5d" type="motorcycle" begin="0" end="3600" vehsPerHour="51.88" departLane="best" departPos="random" departSpeed="0" from="-55029244#0" to="198876042#0"/>
  <flow id="motorcycle_-55029244#0_193253427#0_000e7d5d" type="motorcycle" begin="0" end="3600" vehsPerHour="42.81" departLane="best" departPos="random" departSpeed="0" from="-55029244#0" to="193253427#0"/>
  <flow id="motorcycle_-55029244#0_198876043#2_000e7d5d" type="motorcycle" begin="0" end="3600" vehsPerHour="37.47" departLane="best" departPos="random" departSpeed="0" from="-55029244#0" to="198876043#2"/>
  <flow id="motorcycle_-55029244#0_28231434_000e7d5d" type="motorcycle" begin="0" end="3600" vehsPerHour="31.93" departLane="best" departPos="random" departSpeed="0" from="-55029244#0" to="28231434"/>
  <flow id="motorcycle_-55029244#0_23241821#0_000e7d5d" type="motorcycle" begin="0" end="3600" vehsPerHour="29.77" departLane="best" departPos="random" departSpeed="0" from="-55029244#0" to="23241821#0"/>
  <flow id="car_34241530#0_198876042#0_000e7d5d" type="car" begin="0" end="3600" vehsPerHour="16.90" departLane="best" departPos="random" departSpeed="0" from="34241530#0" to="198876042#0"/>
  <flow id="car_34241530#0_193253427#0_000e7d5d" type="car" begin="0" end="3600" vehsPerHour="14.95" departLane="best" departPos="random" departSpeed="0" from="34241530#0" to="193253427#0"/>
  <flow id="car_34241530#0_198876043#2_000e7d5d" type="car" begin="0" end="3600" vehsPerHour="12.93" departLane="best" departPos="random" departSpeed="0" from="34241530#0" to="198876043#2"/>
  <flow id="car_34241530#0_28231434_000e7d5d" type="car" begin="0" end="3600" vehsPerHour="10.34" departLane="best" departPos="random" departSpeed="0" from="34241530#0" to="28231434"/>
  <flow id="car_34241530#0_23241821#0_000e7d5d" type="car" begin="0" end="3600" vehsPerHour="7.91" departLane="best" departPos="random" departSpeed="0" from="34241530#0" to="23241821#0"/>
  <flow id="motorcycle_34241530#0_198876042#0_000e7d5d" type="motorcycle" begin="0" end="3600" vehsPerHour="48.76" departLane="best" departPos="random" departSpeed="0" from="34241530#0" to="198876042#0"/>
  <flow id="motorcycle_34241530#0_193253427#0_000e7d5d" type="motorcycle" begin="0" end="3600" vehsPerHour="40.29" departLane="best" departPos="random" departSpeed="0" from="34241530#0" to="193253427#0"/>
  <flow id="motorcycle_34241530#0_198876043#2_000e7d5d" type="motorcycle" begin="0" end="3600" vehsPerHour="37.90" departLane="best" departPos="random" departSpeed="0" from="34241530#0" to="198876043#2"/>
  <flow id="motorcycle_34241530#0_28231434_000e7d5d" type="motorcycle" begin="0" end="3600" vehsPerHour="34.61" departLane="best" departPos="random" departSpeed="0" from="34241530#0" to="28231434"/>
  <flow id="motorcycle_34241530#0_23241821#0_000e7d5d" type="motorcycle" begin="0" end="3600" vehsPerHour="29.89" departLane="best" departPos="random" departSpeed="0" from="34241530#0" to="23241821#0"/>
  <flow id="truck_34241530#0_198876042#0_000e7d5d" type="truck" begin="0" end="3600" vehsPerHour="7.47" departLane="best" departPos="random" departSpeed="0" from="34241530#0" to="198876042#0"/>
</routes>
