<routes>
<vType id="car" vClass="passenger" accel="2.6" decel="4.5" sigma="0.5" length="5.0" maxSpeed="13.9"/>
<vType id="motorcycle" vClass="motorcycle" accel="3.0" decel="5.0" sigma="0.5" length="2.0" maxSpeed="14.0"/>
<vType id="truck" vClass="truck" accel="1.2" decel="3.5" sigma="0.5" length="12.0" maxSpeed="10.0"/>

  <flow id="car_222682222#1_193253427#0_0002066d" type="car" begin="0" end="3600" vehsPerHour="35.98" departLane="best" departPos="random" departSpeed="0" from="222682222#1" to="193253427#0"/>
  <flow id="car_222682222#1_198876043#0_0002066d" type="car" begin="0" end="3600" vehsPerHour="30.56" departLane="best" departPos="random" departSpeed="0" from="222682222#1" to="198876043#0"/>
  <flow id="car_222682222#1_28231434_0002066d" type="car" begin="0" end="3600" vehsPerHour="29.91" departLane="best" departPos="random" departSpeed="0" from="222682222#1" to="28231434"/>
  <flow id="car_222682222#1_23241821#0_0002066d" type="car" begin="0" end="3600" vehsPerHour="23.83" departLane="best" departPos="random" departSpeed="0" from="222682222#1" to="23241821#0"/>
  <flow id="car_222682222#1_198876042#0_0002066d" type="car" begin="0" end="3600" vehsPerHour="20.11" departLane="best" departPos="random" departSpeed="0" from="222682222#1" to="198876042#0"/>
  <flow id="motorcycle_222682222#1_193253427#0_0002066d" type="motorcycle" begin="0" end="3600" vehsPerHour="113.21" departLane="best" departPos="random" departSpeed="0" from="222682222#1" to="193253427#0"/>
  <flow id="motorcycle_222682222#1_198876043#0_0002066d" type="motorcycle" begin="0" end="3600" vehsPerHour="98.79" departLane="best" departPos="random" departSpeed="0" from="222682222#1" to="198876043#0"/>
  <flow id="motorcycle_222682222#1_28231434_0002066d" type="motorcycle" begin="0" end="3600" vehsPerHour="88.37" departLane="best" departPos="random" departSpeed="0" from="222682222#1" to="28231434"/>
  <flow id="motorcycle_222682222#1_23241821#0_0002066d" type="motorcycle" begin="0" end="3600" vehsPerHour="68.14" departLane="best" departPos="random" departSpeed="0" from="222682222#1" to="23241821#0"/>
  <flow id="motorcycle_222682222#1_198876042#0_0002066d" type="motorcycle" begin="0" end="3600" vehsPerHour="65.21" departLane="best" departPos="random" departSpeed="0" from="222682222#1" to="198876042#0"/>
  <flow id="car_193253433#2_198876043#0_0002066d" type="car" begin="0" end="3600" vehsPerHour="24.87" departLane="best" departPos="random" departSpeed="0" from="193253433#2" to="198876043#0"/>
  <flow id="car_193253433#2_28231434_0002066d" type="car" begin="0" end="3600" vehsPerHour="20.15" departLane="best" departPos="random" departSpeed="0" from="193253433#2" to="28231434"/>
  <flow id="car_193253433#2_23241821#0_0002066d" type="car" begin="0" end="3600" vehsPerHour="20.41" departLane="best" departPos="random" departSpeed="0" from="193253433#2" to="23241821#0"/>
  <flow id="car_193253433#2_198876042#0_0002066d" type="car" begin="0" end="3600" vehsPerHour="15.99" departLane="best" departPos="random" departSpeed="0" from="193253433#2" to="198876042#0"/>
  <flow id="car_193253433#2_193253427#0_0002066d" type="car" begin="0" end="3600" vehsPerHour="13.96" departLane="best" departPos="random" departSpeed="0" from="193253433#2" to="193253427#0"/>
  <flow id="motorcycle_193253433#2_198876043#0_0002066d" type="motorcycle" begin="0" end="3600" vehsPerHour="68.67" departLane="best" departPos="random" departSpeed="0" from="193253433#2" to="198876043#0"/>
  <flow id="motorcycle_193253433#2_28231434_0002066d" type="motorcycle" begin="0" end="3600" vehsPerHour="61.84" departLane="best" departPos="random" departSpeed="0" from="193253433#2" to="28231434"/>
  <flow id="motorcycle_193253433#2_23241821#0_0002066d" type="motorcycle" begin="0" end="3600" vehsPerHour="60.29" departLane="best" departPos="random" departSpeed="0" from="193253433#2" to="23241821#0"/>
  <flow id="motorcycle_193253433#2_198876042#0_0002066d" type="motorcycle" begin="0" end="3600" vehsPerHour="51.53" departLane="best" departPos="random" departSpeed="0" from="193253433#2" to="198876042#0"/>
  <flow id="motorcycle_193253433#2_193253427#0_0002066d" type="motorcycle" begin="0" end="3600" vehsPerHour="39.82" departLane="best" departPos="random" departSpeed="0" from="193253433#2" to="193253427#0"/>
  <flow id="car_198876045#1_28231434_0002066d" type="car" begin="0" end="3600" vehsPerHour="21.30" departLane="best" departPos="random" departSpeed="0" from="198876045#1" to="28231434"/>
  <flow id="car_198876045#1_23241821#0_0002066d" type="car" begin="0" end="3600" vehsPerHour="18.22" departLane="best" departPos="random" departSpeed="0" from="198876045#1" to="23241821#0"/>
  <flow id="car_198876045#1_198876042#0_0002066d" type="car" begin="0" end="3600" vehsPerHour="16.99" departLane="best" departPos="random" departSpeed="0" from="198876045#1" to="198876042#0"/>
  <flow id="car_198876045#1_193253427#0_0002066d" type="car" begin="0" end="3600" vehsPerHour="14.98" departLane="best" departPos="random" departSpeed="0" from="198876045#1" to="193253427#0"/>
  <flow id="car_198876045#1_198876043#2_0002066d" type="car" begin="0" end="3600" vehsPerHour="12.53" departLane="best" departPos="random" departSpeed="0" from="198876045#1" to="198876043#2"/>
  <flow id="motorcycle_198876045#1_28231434_0002066d" type="motorcycle" begin="0" end="3600" vehsPerHour="61.41" departLane="best" departPos="random" departSpeed="0" from="198876045#1" to="28231434"/>
  <flow id="motorcycle_198876045#1_23241821#0_0002066d" type="motorcycle" begin="0" end="3600" vehsPerHour="55.80" departLane="best" departPos="random" departSpeed="0" from="198876045#1" to="23241821#0"/>
  <flow id="motorcycle_198876045#1_198876042#0_0002066d" type="motorcycle" begin="0" end="3600" vehsPerHour="50.38" departLane="best" departPos="random" departSpeed="0" from="198876045#1" to="198876042#0"/>
  <flow id="motorcycle_198876045#1_193253427#0_0002066d" type="motorcycle" begin="0" end="3600" vehsPerHour="45.38" departLane="best" departPos="random" departSpeed="0" from="198876045#1" to="193253427#0"/>
  <flow id="motorcycle_198876045#1_198876043#2_0002066d" type="motorcycle" begin="0" end="3600" vehsPerHour="42.84" departLane="best" departPos="random" departSpeed="0" from="198876045#1" to="198876043#2"/>
  <flow id="car_-28231434_23241821#0_0002066d" type="car" begin="0" end="3600" vehsPerHour="14.83" departLane="best" departPos="random" departSpeed="0" from="-28231434" to="23241821#0"/>
  <flow id="car_-28231434_198876042#0_0002066d" type="car" begin="0" end="3600" vehsPerHour="12.01" departLane="best" departPos="random" departSpeed="0" from="-28231434" to="198876042#0"/>
  <flow id="car_-28231434_193253427#0_0002066d" type="car" begin="0" end="3600" vehsPerHour="9.99" departLane="best" departPos="random" departSpeed="0" from="-28231434" to="193253427#0"/>
  <flow id="car_-28231434_198876043#2_0002066d" type="car" begin="0" end="3600" vehsPerHour="10.19" departLane="best" departPos="random" departSpeed="0" from="-28231434" to="198876043#2"/>
  <flow id="car_-28231434_28231434_0002066d" type="car" begin="0" end="3600" vehsPerHour="8.69" departLane="best" departPos="random" departSpeed="0" from="-28231434" to="28231434"/>
  <flow id="motorcycle_-28231434_23241821#0_0002066d" type="motorcycle" begin="0" end="3600" vehsPerHour="41.71" departLane="best" departPos="random" departSpeed="0" from="-28231434" to="23241821#0"/>
  <flow id="motorcycle_-28231434_198876042#0_0002066d" type="motorcycle" begin="0" end="3600" vehsPerHour="35.76" departLane="best" departPos="random" departSpeed="0" from="-28231434" to="198876042#0"/>
  <flow id="motorcycle_-28231434_193253427#0_0002066d" type="motorcycle" begin="0" end="3600" vehsPerHour="32.43" departLane="best" departPos="random" departSpeed="0" from="-28231434" to="193253427#0"/>
  <flow id="motorcycle_-28231434_198876043#2_0002066d" type="motorcycle" begin="0" end="3600" vehsPerHour="29.44" departLane="best" departPos="random" departSpeed="0" from="-28231434" to="198876043#2"/>
  <flow id="motorcycle_-28231434_28231434_0002066d" type="motorcycle" begin="0" end="3600" vehsPerHour="25.18" departLane="best" departPos="random" departSpeed="0" from="-28231434" to="28231434"/>
  <flow id="car_-55029244#0_198876042#0_0002066d" type="car" begin="0" end="3600" vehsPerHour="16.41" departLane="best" departPos="random" departSpeed="0" from="-55029244#0" to="198876042#0"/>
  <flow id="car_-55029244#0_193253427#0_0002066d" type="car" begin="0" end="3600" vehsPerHour="14.02" departLane="best" departPos="random" departSpeed="0" from="-55029244#0" to="193253427#0"/>
  <flow id="car_-55029244#0_198876043#2_0002066d" type="car" begin="0" end="3600" vehsPerHour="11.95" departLane="best" departPos="random" departSpeed="0" from="-55029244#0" to="198876043#2"/>
  <flow id="car_-55029244#0_28231434_0002066d" type="car" begin="0" end="3600" vehsPerHour="10.57" departLane="best" departPos="random" departSpeed="0" from="-55029244#0" to="28231434"/>
  <flow id="car_-55029244#0_23241821#0_0002066d" type="car" begin="0" end="3600" vehsPerHour="8.15" departLane="best" departPos="random" departSpeed="0" from="-55029244#0" to="23241821#0"/>
  <flow id="motorcycle_-55029244#0_198876042#0_0002066d" type="motorcycle" begin="0" end="3600" vehsPerHour="51.00" departLane="best" departPos="random" departSpeed="0" from="-55029244#0" to="198876042#0"/>
  <flow id="motorcycle_-55029244#0_193253427#0_0002066d" type="motorcycle" begin="0" end="3600" vehsPerHour="39.81" departLane="best" departPos="random" departSpeed="0" from="-55029244#0" to="193253427#0"/>
  <flow id="motorcycle_-55029244#0_198876043#2_0002066d" type="motorcycle" begin="0" end="3600" vehsPerHour="38.94" departLane="best" departPos="random" departSpeed="0" from="-55029244#0" to="198876043#2"/>
  <flow id="motorcycle_-55029244#0_28231434_0002066d" type="motorcycle" begin="0" end="3600" vehsPerHour="32.41" departLane="best" departPos="random" departSpeed="0" from="-55029244#0" to="28231434"/>
  <flow id="motorcycle_-55029244#0_23241821#0_0002066d" type="motorcycle" begin="0" end="3600" vehsPerHour="28.70" departLane="best" departPos="random" departSpeed="0" from="-55029244#0" to="23241821#0"/>
  <flow id="car_34241530#0_198876042#0_0002066d" type="car" begin="0" end="3600" vehsPerHour="16.78" departLane="best" departPos="random" departSpeed="0" from="34241530#0" to="198876042#0"/>
  <flow id="car_34241530#0_193253427#0_0002066d" type="car" begin="0" end="3600" vehsPerHour="14.55" departLane="best" departPos="random" departSpeed="0" from="34241530#0" to="193253427#0"/>
  <flow id="car_34241530#0_198876043#2_0002066d" type="car" begin="0" end="3600" vehsPerHour="12.26" departLane="best" departPos="random" departSpeed="0" from="34241530#0" to="198876043#2"/>
  <flow id="car_34241530#0_28231434_0002066d" type="car" begin="0" end="3600" vehsPerHour="10.26" departLane="best" departPos="random" departSpeed="0" from="34241530#0" to="28231434"/>
  <flow id="car_34241530#0_23241821#0_0002066d" type="car" begin="0" end="3600" vehsPerHour="8.23" departLane="best" departPos="random" departSpeed="0" from="34241530#0" to="23241821#0"/>
  <flow id="motorcycle_34241530#0_198876042#0_0002066d" type="motorcycle" begin="0" end="3600" vehsPerHour="48.98" departLane="best" departPos="random" departSpeed="0" from="34241530#0" to="198876042#0"/>
  <flow id="motorcycle_34241530#0_193253427#0_0002066d" type="motorcycle" begin="0" end="3600" vehsPerHour="42.49" departLane="best" departPos="random" departSpeed="0" from="34241530#0" to="193253427#0"/>
  <flow id="motorcycle_34241530#0_198876043#2_0002066d" type="motorcycle" begin="0" end="3600" vehsPerHour="36.75" departLane="best" departPos="random" departSpeed="0" from="34241530#0" to="198876043#2"/>
  <flow id="motorcycle_34241530#0_28231434_0002066d" type="motorcycle" begin="0" end="3600" vehsPerHour="32.68" departLane="best" departPos="random" departSpeed="0" from="34241530#0" to="28231434"/>
  <flow id="motorcycle_34241530#0_23241821#0_0002066d" type="motorcycle" begin="0" end="3600" vehsPerHour="28.54" departLane="best" departPos="random" departSpeed="0" from="34241530#0" to="23241821#0"/>
  <flow id="truck_34241530#0_198876042#0_0002066d" type="truck" begin="0" end="3600" vehsPerHour="7.36" departLane="best" departPos="random" departSpeed="0" from="34241530#0" to="198876042#0"/>
</routes>
