<routes>
<vType id="car" vClass="passenger" accel="2.6" decel="4.5" sigma="0.5" length="5.0" maxSpeed="13.9"/>
<vType id="motorcycle" vClass="motorcycle" accel="3.0" decel="5.0" sigma="0.5" length="2.0" maxSpeed="14.0"/>
<vType id="truck" vClass="truck" accel="1.2" decel="3.5" sigma="0.5" length="12.0" maxSpeed="10.0"/>

  <flow id="car_222682222#1_193253427#0_000b56b3" type="car" begin="0" end="3600" vehsPerHour="37.63" departLane="best" departPos="random" departSpeed="0" from="222682222#1" to="193253427#0"/>
  <flow id="car_222682222#1_198876043#0_000b56b3" type="car" begin="0" end="3600" vehsPerHour="32.38" departLane="best" departPos="random" departSpeed="0" from="222682222#1" to="198876043#0"/>
  <flow id="car_222682222#1_28231434_000b56b3" type="car" begin="0" end="3600" vehsPerHour="32.02" departLane="best" departPos="random" departSpeed="0" from="222682222#1" to="28231434"/>
  <flow id="car_222682222#1_23241821#0_000b56b3" type="car" begin="0" end="3600" vehsPerHour="25.32" departLane="best" departPos="random" departSpeed="0" from="222682222#1" to="23241821#0"/>
  <flow id="car_222682222#1_198876042#0_000b56b3" type="car" begin="0" end="3600" vehsPerHour="21.29" departLane="best" departPos="random" departSpeed="0" from="222682222#1" to="198876042#0"/>
  <flow id="motorcycle_222682222#1_193253427#0_000b56b3" type="motorcycle" begin="0" end="3600" vehsPerHour="107.54" departLane="best" departPos="random" departSpeed="0" from="222682222#1" to="193253427#0"/>
  <flow id="motorcycle_222682222#1_198876043#0_000b56b3" type="motorcycle" begin="0" end="3600" vehsPerHour="90.91" departLane="best" departPos="random" departSpeed="0" from="222682222#1" to="198876043#0"/>
  <flow id="motorcycle_222682222#1_28231434_000b56b3" type="motorcycle" begin="0" end="3600" vehsPerHour="87.06" departLane="best" departPos="random" departSpeed="0" from="222682222#1" to="28231434"/>
  <flow id="motorcycle_222682222#1_23241821#0_000b56b3" type="motorcycle" begin="0" end="3600" vehsPerHour="70.72" departLane="best" departPos="random" departSpeed="0" from="222682222#1" to="23241821#0"/>
  <flow id="motorcycle_222682222#1_198876042#0_000b56b3" type="motorcycle" begin="0" end="3600" vehsPerHour="63.35" departLane="best" departPos="random" departSpeed="0" from="222682222#1" to="198876042#0"/>
  <flow id="car_193253433#2_198876043#0_000b56b3" type="car" begin="0" end="3600" vehsPerHour="25.81" departLane="best" departPos="random" departSpeed="0" from="193253433#2" to="198876043#0"/>
  <flow id="car_193253433#2_28231434_000b56b3" type="car" begin="0" end="3600" vehsPerHour="20.28" departLane="best" departPos="random" departSpeed="0" from="193253433#2" to="28231434"/>
  <flow id="car_193253433#2_23241821#0_000b56b3" type="car" begin="0" end="3600" vehsPerHour="20.20" departLane="best" departPos="random" departSpeed="0" from="193253433#2" to="23241821#0"/>
  <flow id="car_193253433#2_198876042#0_000b56b3" type="car" begin="0" end="3600" vehsPerHour="16.89" departLane="best" departPos="random" departSpeed="0" from="193253433#2" to="198876042#0"/>
  <flow id="car_193253433#2_193253427#0_000b56b3" type="car" begin="0" end="3600" vehsPerHour="14.18" departLane="best" departPos="random" departSpeed="0" from="193253433#2" to="193253427#0"/>
  <flow id="motorcycle_193253433#2_198876043#0_000b56b3" type="motorcycle" begin="0" end="3600" vehsPerHour="67.76" departLane="best" departPos="random" departSpeed="0" from="193253433#2" to="198876043#0"/>
  <flow id="motorcycle_193253433#2_28231434_000b56b3" type="motorcycle" begin="0" end="3600" vehsPerHour="62.78" departLane="best" departPos="random" departSpeed="0" from="193253433#2" to="28231434"/>
  <flow id="motorcycle_193253433#2_23241821#0_000b56b3" type="motorcycle" begin="0" end="3600" vehsPerHour="56.05" departLane="best" departPos="random" departSpeed="0" from="193253433#2" to="23241821#0"/>
  <flow id="motorcycle_193253433#2_198876042#0_000b56b3" type="motorcycle" begin="0" end="3600" vehsPerHour="51.15" departLane="best" departPos="random" departSpeed="0" from="193253433#2" to="198876042#0"/>
  <flow id="motorcycle_193253433#2_193253427#0_000b56b3" type="motorcycle" begin="0" end="3600" vehsPerHour="42.19" departLane="best" departPos="random" departSpeed="0" from="193253433#2" to="193253427#0"/>
  <flow id="car_198876045#1_28231434_000b56b3" type="car" begin="0" end="3600" vehsPerHour="20.32" departLane="best" departPos="random" departSpeed="0" from="198876045#1" to="28231434"/>
  <flow id="car_198876045#1_23241821#0_000b56b3" type="car" begin="0" end="3600" vehsPerHour="19.55" departLane="best" departPos="random" departSpeed="0" from="198876045#1" to="23241821#0"/>
  <flow id="car_198876045#1_198876042#0_000b56b3" type="car" begin="0" end="3600" vehsPerHour="17.00" departLane="best" departPos="random" departSpeed="0" from="198876045#1" to="198876042#0"/>
  <flow id="car_198876045#1_193253427#0_000b56b3" type="car" begin="0" end="3600" vehsPerHour="14.87" departLane="best" departPos="random" departSpeed="0" from="198876045#1" to="193253427#0"/>
  <flow id="car_198876045#1_198876043#2_000b56b3" type="car" begin="0" end="3600" vehsPerHour="12.54" departLane="best" departPos="random" departSpeed="0" from="198876045#1" to="198876043#2"/>
  <flow id="motorcycle_198876045#1_28231434_000b56b3" type="motorcycle" begin="0" end="3600" vehsPerHour="64.95" departLane="best" departPos="random" departSpeed="0" from="198876045#1" to="28231434"/>
  <flow id="motorcycle_198876045#1_23241821#0_000b56b3" type="motorcycle" begin="0" end="3600" vehsPerHour="54.17" departLane="best" departPos="random" departSpeed="0" from="198876045#1" to="23241821#0"/>
  <flow id="motorcycle_198876045#1_198876042#0_000b56b3" type="motorcycle" begin="0" end="3600" vehsPerHour="48.81" departLane="best" departPos="random" departSpeed="0" from="198876045#1" to="198876042#0"/>
  <flow id="motorcycle_198876045#1_193253427#0_000b56b3" type="motorcycle" begin="0" end="3600" vehsPerHour="47.16" departLane="best" departPos="random" departSpeed="0" from="198876045#1" to="193253427#0"/>
  <flow id="motorcycle_198876045#1_198876043#2_000b56b3" type="motorcycle" begin="0" end="3600" vehsPerHour="43.39" departLane="best" departPos="random" departSpeed="0" from="198876045#1" to="198876043#2"/>
  <flow id="car_-28231434_23241821#0_000b56b3" type="car" begin="0" end="3600" vehsPerHour="14.45" departLane="best" departPos="random" departSpeed="0" from="-28231434" to="23241821#0"/>
  <flow id="car_-28231434_198876042#0_000b56b3" type="car" begin="0" end="3600" vehsPerHour="12.80" departLane="best" departPos="random" departSpeed="0" from="-28231434" to="198876042#0"/>
  <flow id="car_-28231434_193253427#0_000b56b3" type="car" begin="0" end="3600" vehsPerHour="10.68" departLane="best" departPos="random" departSpeed="0" from="-28231434" to="193253427#0"/>
  <flow id="car_-28231434_198876043#2_000b56b3" type="car" begin="0" end="3600" vehsPerHour="10.76" departLane="best" departPos="random" departSpeed="0" from="-28231434" to="198876043#2"/>
  <flow id="car_-28231434_28231434_000b56b3" type="car" begin="0" end="3600" vehsPerHour="8.27" departLane="best" departPos="random" departSpeed="0" from="-28231434" to="28231434"/>
  <flow id="motorcycle_-28231434_23241821#0_000b56b3" type="motorcycle" begin="0" end="3600" vehsPerHour="42.10" departLane="best" departPos="random" departSpeed="0" from="-28231434" to="23241821#0"/>
  <flow id="motorcycle_-28231434_198876042#0_000b56b3" type="motorcycle" begin="0" end="3600" vehsPerHour="38.70" departLane="best" departPos="random" departSpeed="0" from="-28231434" to="198876042#0"/>
  <flow id="motorcycle_-28231434_193253427#0_000b56b3" type="motorcycle" begin="0" end="3600" vehsPerHour="34.11" departLane="best" departPos="random" departSpeed="0" from="-28231434" to="193253427#0"/>
  <flow id="motorcycle_-28231434_198876043#2_000b56b3" type="motorcycle" begin="0" end="3600" vehsPerHour="30.43" departLane="best" departPos="random" departSpeed="0" from="-28231434" to="198876043#2"/>
  <flow id="motorcycle_-28231434_28231434_000b56b3" type="motorcycle" begin="0" end="3600" vehsPerHour="25.03" departLane="best" departPos="random" departSpeed="0" from="-28231434" to="28231434"/>
  <flow id="car_-55029244#0_198876042#0_000b56b3" type="car" begin="0" end="3600" vehsPerHour="16.23" departLane="best" departPos="random" departSpeed="0" from="-55029244#0" to="198876042#0"/>
  <flow id="car_-55029244#0_193253427#0_000b56b3" type="car" begin="0" end="3600" vehsPerHour="14.73" departLane="best" departPos="random" departSpeed="0" from="-55029244#0" to="193253427#0"/>
  <flow id="car_-55029244#0_198876043#2_000b56b3" type="car" begin="0" end="3600" vehsPerHour="12.42" departLane="best" departPos="random" departSpeed="0" from="-55029244#0" to="198876043#2"/>
  <flow id="car_-55029244#0_28231434_000b56b3" type="car" begin="0" end="3600" vehsPerHour="10.08" departLane="best" departPos="random" departSpeed="0" from="-55029244#0" to="28231434"/>
  <flow id="car_-55029244#0_23241821#0_000b56b3" type="car" begin="0" end="3600" vehsPerHour="8.63" departLane="best" departPos="random" departSpeed="0" from="-55029244#0" to="23241821#0"/>
  <flow id="motorcycle_-55029244#0_198876042#0_000b56b3" type="motorcycle" begin="0" end="3600" vehsPerHour="50.83" departLane="best" departPos="random" departSpeed="0" from="-55029244#0" to="198876042#0"/>
  <flow id="motorcycle_-55029244#0_193253427#0_000b56b3" type="motorcycle" begin="0" end="3600" vehsPerHour="40.63" departLane="best" departPos="random" departSpeed="0" from="-55029244#0" to="193253427#0"/>
  <flow id="motorcycle_-55029244#0_198876043#2_000b56b3" type="motorcycle" begin="0" end="3600" vehsPerHour="37.36" departLane="best" departPos="random" departSpeed="0" from="-55029244#0" to="198876043#2"/>
  <flow id="motorcycle_-55029244#0_28231434_000b56b3" type="motorcycle" begin="0" end="3600" vehsPerHour="34.73" departLane="best" departPos="random" departSpeed="0" from="-55029244#0" to="28231434"/>
  <flow id="motorcycle_-55029244#0_23241821#0_000b56b3" type="motorcycle" begin="0" end="3600" vehsPerHour="29.68" departLane="best" departPos="random" departSpeed="0" from="-55029244#0" to="23241821#0"/>
  <flow id="car_34241530#0_198876042#0_000b56b3" type="car" begin="0" end="3600" vehsPerHour="16.94" departLane="best" departPos="random" departSpeed="0" from="34241530#0" to="198876042#0"/>
  <flow id="car_34241530#0_193253427#0_000b56b3" type="car" begin="0" end="3600" vehsPerHour="14.32" departLane="best" departPos="random" departSpeed="0" from="34241530#0" to="193253427#0"/>
  <flow id="car_34241530#0_198876043#2_000b56b3" type="car" begin="0" end="3600" vehsPerHour="12.14" departLane="best" departPos="random" departSpeed="0" from="34241530#0" to="198876043#2"/>
  <flow id="car_34241530#0_28231434_000b56b3" type="car" begin="0" end="3600" vehsPerHour="10.63" departLane="best" departPos="random" departSpeed="0" from="34241530#0" to="28231434"/>
  <flow id="car_34241530#0_23241821#0_000b56b3" type="car" begin="0" end="3600" vehsPerHour="8.41" departLane="best" departPos="random" departSpeed="0" from="34241530#0" to="23241821#0"/>
  <flow id="motorcycle_34241530#0_198876042#0_000b56b3" type="motorcycle" begin="0" end="3600" vehsPerHour="51.73" departLane="best" departPos="random" departSpeed="0" from="34241530#0" to="198876042#0"/>
  <flow id="motorcycle_34241530#0_193253427#0_000b56b3" type="motorcycle" begin="0" end="3600" vehsPerHour="41.82" departLane="best" departPos="random" departSpeed="0" from="34241530#0" to="193253427#0"/>
  <flow id="motorcycle_34241530#0_198876043#2_000b56b3" type="motorcycle" begin="0" end="3600" vehsPerHour="38.62" departLane="best" departPos="random" departSpeed="0" from="34241530#0" to="198876043#2"/>
  <flow id="motorcycle_34241530#0_28231434_000b56b3" type="motorcycle" begin="0" end="3600" vehsPerHour="31.94" departLane="best" departPos="random" departSpeed="0" from="34241530#0" to="28231434"/>
  <flow id="motorcycle_34241530#0_23241821#0_000b56b3" type="motorcycle" begin="0" end="3600" vehsPerHour="29.64" departLane="best" departPos="random" departSpeed="0" from="34241530#0" to="23241821#0"/>
  <flow id="truck_34241530#0_198876042#0_000b56b3" type="truck" begin="0" end="3600" vehsPerHour="7.53" departLane="best" departPos="random" departSpeed="0" from="34241530#0" to="198876042#0"/>
</routes>
