<routes>
<vType id="car" vClass="passenger" accel="2.6" decel="4.5" sigma="0.5" length="5.0" maxSpeed="13.9"/>
<vType id="motorcycle" vClass="motorcycle" accel="3.0" decel="5.0" sigma="0.5" length="2.0" maxSpeed="14.0"/>
<vType id="truck" vClass="truck" accel="1.2" decel="3.5" sigma="0.5" length="12.0" maxSpeed="10.0"/>

  <flow id="car_222682222#1_193253427#0_00057e60" type="car" begin="0" end="3600" vehsPerHour="38.78" departLane="best" departPos="random" departSpeed="0" from="222682222#1" to="193253427#0"/>
  <flow id="car_222682222#1_198876043#0_00057e60" type="car" begin="0" end="3600" vehsPerHour="32.58" departLane="best" departPos="random" departSpeed="0" from="222682222#1" to="198876043#0"/>
  <flow id="car_222682222#1_28231434_00057e60" type="car" begin="0" end="3600" vehsPerHour="29.67" departLane="best" departPos="random" departSpeed="0" from="222682222#1" to="28231434"/>
  <flow id="car_222682222#1_23241821#0_00057e60" type="car" begin="0" end="3600" vehsPerHour="24.75" departLane="best" departPos="random" departSpeed="0" from="222682222#1" to="23241821#0"/>
  <flow id="car_222682222#1_198876042#0_00057e60" type="car" begin="0" end="3600" vehsPerHour="20.05" departLane="best" departPos="random" departSpeed="0" from="222682222#1" to="198876042#0"/>
  <flow id="motorcycle_222682222#1_193253427#0_00057e60" type="motorcycle" begin="0" end="3600" vehsPerHour="107.82" departLane="best" departPos="random" departSpeed="0" from="222682222#1" to="193253427#0"/>
  <flow id="motorcycle_222682222#1_198876043#0_00057e60" type="motorcycle" begin="0" end="3600" vehsPerHour="97.71" departLane="best" departPos="random" departSpeed="0" from="222682222#1" to="198876043#0"/>
  <flow id="motorcycle_222682222#1_28231434_00057e60" type="motorcycle" begin="0" end="3600" vehsPerHour="85.22" departLane="best" departPos="random" departSpeed="0" from="222682222#1" to="28231434"/>
  <flow id="motorcycle_222682222#1_23241821#0_00057e60" type="motorcycle" begin="0" end="3600" vehsPerHour="70.04" departLane="best" departPos="random" departSpeed="0" from="222682222#1" to="23241821#0"/>
  <flow id="motorcycle_222682222#1_198876042#0_00057e60" type="motorcycle" begin="0" end="3600" vehsPerHour="61.66" departLane="best" departPos="random" departSpeed="0" from="222682222#1" to="198876042#0"/>
  <flow id="car_193253433#2_198876043#0_00057e60" type="car" begin="0" end="3600" vehsPerHour="24.69" departLane="best" departPos="random" departSpeed="0" from="193253433#2" to="198876043#0"/>
  <flow id="car_193253433#2_28231434_00057e60" type="car" begin="0" end="3600" vehsPerHour="20.48" departLane="best" departPos="random" departSpeed="0" from="193253433#2" to="28231434"/>
  <flow id="car_193253433#2_23241821#0_00057e60" type="car" begin="0" end="3600" vehsPerHour="20.57" departLane="best" departPos="random" departSpeed="0" from="193253433#2" to="23241821#0"/>
  <flow id="car_193253433#2_198876042#0_00057e60" type="car" begin="0" end="3600" vehsPerHour="15.97" departLane="best" departPos="random" departSpeed="0" from="193253433#2" to="198876042#0"/>
  <flow id="car_193253433#2_193253427#0_00057e60" type="car" begin="0" end="3600" vehsPerHour="14.20" departLane="best" departPos="random" departSpeed="0" from="193253433#2" to="193253427#0"/>
  <flow id="motorcycle_193253433#2_198876043#0_00057e60" type="motorcycle" begin="0" end="3600" vehsPerHour="68.54" departLane="best" departPos="random" departSpeed="0" from="193253433#2" to="198876043#0"/>
  <flow id="motorcycle_193253433#2_28231434_00057e60" type="motorcycle" begin="0" end="3600" vehsPerHour="65.01" departLane="best" departPos="random" departSpeed="0" from="193253433#2" to="28231434"/>
  <flow id="motorcycle_193253433#2_23241821#0_00057e60" type="motorcycle" begin="0" end="3600" vehsPerHour="56.95" departLane="best" departPos="random" departSpeed="0" from="193253433#2" to="23241821#0"/>
  <flow id="motorcycle_193253433#2_198876042#0_00057e60" type="motorcycle" begin="0" end="3600" vehsPerHour="48.90" departLane="best" departPos="random" departSpeed="0" from="193253433#2" to="198876042#0"/>
  <flow id="motorcycle_193253433#2_193253427#0_00057e60" type="motorcycle" begin="0" end="3600" vehsPerHour="41.35" departLane="best" departPos="random" departSpeed="0" from="193253433#2" to="193253427#0"/>
  <flow id="car_198876045#1_28231434_00057e60" type="car" begin="0" end="3600" vehsPerHour="20.33" departLane="best" departPos="random" departSpeed="0" from="198876045#1" to="28231434"/>
  <flow id="car_198876045#1_23241821#0_00057e60" type="car" begin="0" end="3600" vehsPerHour="18.32" departLane="best" departPos="random" departSpeed="0" from="198876045#1" to="23241821#0"/>
  <flow id="car_198876045#1_198876042#0_00057e60" type="car" begin="0" end="3600" vehsPerHour="16.98" departLane="best" departPos="random" departSpeed="0" from="198876045#1" to="198876042#0"/>
  <flow id="car_198876045#1_193253427#0_00057e60" type="car" begin="0" end="3600" vehsPerHour="14.09" departLane="best" departPos="random" departSpeed="0" from="198876045#1" to="193253427#0"/>
  <flow id="car_198876045#1_198876043#2_00057e60" type="car" begin="0" end="3600" vehsPerHour="12.75" departLane="best" departPos="random" departSpeed="0" from="198876045#1" to="198876043#2"/>
  <flow id="motorcycle_198876045#1_28231434_00057e60" type="motorcycle" begin="0" end="3600" vehsPerHour="62.25" departLane="best" departPos="random" departSpeed="0" from="198876045#1" to="28231434"/>
  <flow id="motorcycle_198876045#1_23241821#0_00057e60" type="motorcycle" begin="0" end="3600" vehsPerHour="53.43" departLane="best" departPos="random" departSpeed="0" from="198876045#1" to="23241821#0"/>
  <flow id="motorcycle_198876045#1_198876042#0_00057e60" type="motorcycle" begin="0" end="3600" vehsPerHour="49.78" departLane="best" departPos="random" departSpeed="0" from="198876045#1" to="198876042#0"/>
  <flow id="motorcycle_198876045#1_193253427#0_00057e60" type="motorcycle" begin="0" end="3600" vehsPerHour="45.16" departLane="best" departPos="random" departSpeed="0" from="198876045#1" to="193253427#0"/>
  <flow id="motorcycle_198876045#1_198876043#2_00057e60" type="motorcycle" begin="0" end="3600" vehsPerHour="43.07" departLane="best" departPos="random" departSpeed="0" from="198876045#1" to="198876043#2"/>
  <flow id="car_-28231434_23241821#0_00057e60" type="car" begin="0" end="3600" vehsPerHour="15.05" departLane="best" departPos="random" departSpeed="0" from="-28231434" to="23241821#0"/>
  <flow id="car_-28231434_198876042#0_00057e60" type="car" begin="0" end="3600" vehsPerHour="12.74" departLane="best" departPos="random" departSpeed="0" from="-28231434" to="198876042#0"/>
  <flow id="car_-28231434_193253427#0_00057e60" type="car" begin="0" end="3600" vehsPerHour="10.19" departLane="best" departPos="random" departSpeed="0" from="-28231434" to="193253427#0"/>
  <flow id="car_-28231434_198876043#2_00057e60" type="car" begin="0" end="3600" vehsPerHour="9.91" departLane="best" departPos="random" departSpeed="0" from="-28231434" to="198876043#2"/>
  <flow id="car_-28231434_28231434_00057e60" type="car" begin="0" end="3600" vehsPerHour="8.66" departLane="best" departPos="random" departSpeed="0" from="-28231434" to="28231434"/>
  <flow id="motorcycle_-28231434_23241821#0_00057e60" type="motorcycle" begin="0" end="3600" vehsPerHour="40.82" departLane="best" departPos="random" departSpeed="0" from="-28231434" to="23241821#0"/>
  <flow id="motorcycle_-28231434_198876042#0_00057e60" type="motorcycle" begin="0" end="3600" vehsPerHour="38.49" departLane="best" departPos="random" departSpeed="0" from="-28231434" to="198876042#0"/>
  <flow id="motorcycle_-28231434_193253427#0_00057e60" type="motorcycle" begin="0" end="3600" vehsPerHour="33.39" departLane="best" departPos="random" departSpeed="0" from="-28231434" to="193253427#0"/>
  <flow id="motorcycle_-28231434_198876043#2_00057e60" type="motorcycle" begin="0" end="3600" vehsPerHour="29.98" departLane="best" departPos="random" departSpeed="0" from="-28231434" to="198876043#2"/>
  <flow id="motorcycle_-28231434_28231434_00057e60" type="motorcycle" begin="0" end="3600" vehsPerHour="25.97" departLane="best" departPos="random" departSpeed="0" from="-28231434" to="28231434"/>
  <flow id="car_-55029244#0_198876042#0_00057e60" type="car" begin="0" end="3600" vehsPerHour="16.86" departLane="best" departPos="random" departSpeed="0" from="-55029244#0" to="198876042#0"/>
  <flow id="car_-55029244#0_193253427#0_00057e60" type="car" begin="0" end="3600" vehsPerHour="15.18" departLane="best" departPos="random" departSpeed="0" from="-55029244#0" to="193253427#0"/>
  <flow id="car_-55029244#0_198876043#2_00057e60" type="car" begin="0" end="3600" vehsPerHour="13.04" departLane="best" departPos="random" departSpeed="0" from="-55029244#0" to="198876043#2"/>
  <flow id="car_-55029244#0_28231434_00057e60" type="car" begin="0" end="3600" vehsPerHour="10.75" departLane="best" departPos="random" departSpeed="0" from="-55029244#0" to="28231434"/>
  <flow id="car_-55029244#0_23241821#0_00057e60" type="car" begin="0" end="3600" vehsPerHour="8.66" departLane="best" departPos="random" departSpeed="0" from="-55029244#0" to="23241821#0"/>
  <flow id="motorcycle_-55029244#0_198876042#0_00057e60" type="motorcycle" begin="0" end="3600" vehsPerHour="49.06" departLane="best" departPos="random" departSpeed="0" from="-55029244#0" to="198876042#0"/>
  <flow id="motorcycle_-55029244#0_193253427#0_00057e60" type="motorcycle" begin="0" end="3600" vehsPerHour="41.04" departLane="best" departPos="random" departSpeed="0" from="-55029244#0" to="193253427#0"/>
  <flow id="motorcycle_-55029244#0_198876043#2_00057e60" type="motorcycle" begin="0" end="3600" vehsPerHour="36.59" departLane="best" departPos="random" departSpeed="0" from="-55029244#0" to="198876043#2"/>
  <flow id="motorcycle_-55029244#0_28231434_00057e60" type="motorcycle" begin="0" end="3600" vehsPerHour="33.79" departLane="best" departPos="random" departSpeed="0" from="-55029244#0" to="28231434"/>
  <flow id="motorcycle_-55029244#0_23241821#0_00057e60" type="motorcycle" begin="0" end="3600" vehsPerHour="27.90" departLane="best" departPos="random" departSpeed="0" from="-55029244#0" to="23241821#0"/>
  <flow id="car_34241530#0_198876042#0_00057e60" type="car" begin="0" end="3600" vehsPerHour="16.91" departLane="best" departPos="random" departSpeed="0" from="34241530#0" to="198876042#0"/>
  <flow id="car_34241530#0_193253427#0_00057e60" type="car" begin="0" end="3600" vehsPerHour="14.21" departLane="best" departPos="random" departSpeed="0" from="34241530#0" to="193253427#0"/>
  <flow id="car_34241530#0_198876043#2_00057e60" type="car" begin="0" end="3600" vehsPerHour="13.06" departLane="best" departPos="random" departSpeed="0" from="34241530#0" to="198876043#2"/>
  <flow id="car_34241530#0_28231434_00057e60" type="car" begin="0" end="3600" vehsPerHour="10.39" departLane="best" departPos="random" departSpeed="0" from="34241530#0" to="28231434"/>
  <flow id="car_34241530#0_23241821#0_00057e60" type="car" begin="0" end="3600" vehsPerHour="8.33" departLane="best" departPos="random" departSpeed="0" from="34241530#0" to="23241821#0"/>
  <flow id="motorcycle_34241530#0_198876042#0_00057e60" type="motorcycle" begin="0" end="3600" vehsPerHour="51.73" departLane="best" departPos="random" departSpeed="0" from="34241530#0" to="198876042#0"/>
  <flow id="motorcycle_34241530#0_193253427#0_00057e60" type="motorcycle" begin="0" end="3600" vehsPerHour="41.90" departLane="best" departPos="random" departSpeed="0" from="34241530#0" to="193253427#0"/>
  <flow id="motorcycle_34241530#0_198876043#2_00057e60" type="motorcycle" begin="0" end="3600" vehsPerHour="39.16" departLane="best" departPos="random" departSpeed="0" from="34241530#0" to="198876043#2"/>
  <flow id="motorcycle_34241530#0_28231434_00057e60" type="motorcycle" begin="0" end="3600" vehsPerHour="31.79" departLane="best" departPos="random" departSpeed="0" from="34241530#0" to="28231434"/>
  <flow id="motorcycle_34241530#0_23241821#0_00057e60" type="motorcycle" begin="0" end="3600" vehsPerHour="27.59" departLane="best" departPos="random" departSpeed="0" from="34241530#0" to="23241821#0"/>
  <flow id="truck_34241530#0_198876042#0_00057e60" type="truck" begin="0" end="3600" vehsPerHour="7.54" departLane="best" departPos="random" departSpeed="0" from="34241530#0" to="198876042#0"/>
</routes>
