<routes>
<vType id="car" vClass="passenger" accel="2.6" decel="4.5" sigma="0.5" length="5.0" maxSpeed="13.9"/>
<vType id="motorcycle" vClass="motorcycle" accel="3.0" decel="5.0" sigma="0.5" length="2.0" maxSpeed="14.0"/>
<vType id="truck" vClass="truck" accel="1.2" decel="3.5" sigma="0.5" length="12.0" maxSpeed="10.0"/>

  <flow id="car_222682222#1_193253427#0_00015290" type="car" begin="0" end="3600" vehsPerHour="38.16" departLane="best" departPos="random" departSpeed="0" from="222682222#1" to="193253427#0"/>
  <flow id="car_222682222#1_198876043#0_00015290" type="car" begin="0" end="3600" vehsPerHour="31.55" departLane="best" departPos="random" departSpeed="0" from="222682222#1" to="198876043#0"/>
  <flow id="car_222682222#1_28231434_00015290" type="car" begin="0" end="3600" vehsPerHour="32.55" departLane="best" departPos="random" departSpeed="0" from="222682222#1" to="28231434"/>
  <flow id="car_222682222#1_23241821#0_00015290" type="car" begin="0" end="3600" vehsPerHour="24.75" departLane="best" departPos="random" departSpeed="0" from="222682222#1" to="23241821#0"/>
  <flow id="car_222682222#1_198876042#0_00015290" type="car" begin="0" end="3600" vehsPerHour="20.19" departLane="best" departPos="random" departSpeed="0" from="222682222#1" to="198876042#0"/>
  <flow id="motorcycle_222682222#1_193253427#0_00015290" type="motorcycle" begin="0" end="3600" vehsPerHour="111.34" departLane="best" departPos="random" departSpeed="0" from="222682222#1" to="193253427#0"/>
  <flow id="motorcycle_222682222#1_198876043#0_00015290" type="motorcycle" begin="0" end="3600" vehsPerHour="98.04" departLane="best" departPos="random" departSpeed="0" from="222682222#1" to="198876043#0"/>
  <flow id="motorcycle_222682222#1_28231434_00015290" type="motorcycle" begin="0" end="3600" vehsPerHour="83.71" departLane="best" departPos="random" departSpeed="0" from="222682222#1" to="28231434"/>
  <flow id="motorcycle_222682222#1_23241821#0_00015290" type="motorcycle" begin="0" end="3600" vehsPerHour="70.49" departLane="best" departPos="random" departSpeed="0" from="222682222#1" to="23241821#0"/>
  <flow id="motorcycle_222682222#1_198876042#0_00015290" type="motorcycle" begin="0" end="3600" vehsPerHour="63.25" departLane="best" departPos="random" departSpeed="0" from="222682222#1" to="198876042#0"/>
  <flow id="car_193253433#2_198876043#0_00015290" type="car" begin="0" end="3600" vehsPerHour="24.74" departLane="best" departPos="random" departSpeed="0" from="193253433#2" to="198876043#0"/>
  <flow id="car_193253433#2_28231434_00015290" type="car" begin="0" end="3600" vehsPerHour="21.03" departLane="best" departPos="random" departSpeed="0" from="193253433#2" to="28231434"/>
  <flow id="car_193253433#2_23241821#0_00015290" type="car" begin="0" end="3600" vehsPerHour="20.60" departLane="best" departPos="random" departSpeed="0" from="193253433#2" to="23241821#0"/>
  <flow id="car_193253433#2_198876042#0_00015290" type="car" begin="0" end="3600" vehsPerHour="16.21" departLane="best" departPos="random" departSpeed="0" from="193253433#2" to="198876042#0"/>
  <flow id="car_193253433#2_193253427#0_00015290" type="car" begin="0" end="3600" vehsPerHour="13.80" departLane="best" departPos="random" departSpeed="0" from="193253433#2" to="193253427#0"/>
  <flow id="motorcycle_193253433#2_198876043#0_00015290" type="motorcycle" begin="0" end="3600" vehsPerHour="70.77" departLane="best" departPos="random" departSpeed="0" from="193253433#2" to="198876043#0"/>
  <flow id="motorcycle_193253433#2_28231434_00015290" type="motorcycle" begin="0" end="3600" vehsPerHour="62.70" departLane="best" departPos="random" departSpeed="0" from="193253433#2" to="28231434"/>
  <flow id="motorcycle_193253433#2_23241821#0_00015290" type="motorcycle" begin="0" end="3600" vehsPerHour="59.31" departLane="best" departPos="random" departSpeed="0" from="193253433#2" to="23241821#0"/>
  <flow id="motorcycle_193253433#2_198876042#0_00015290" type="motorcycle" begin="0" end="3600" vehsPerHour="49.32" departLane="best" departPos="random" departSpeed="0" from="193253433#2" to="198876042#0"/>
  <flow id="motorcycle_193253433#2_193253427#0_00015290" type="motorcycle" begin="0" end="3600" vehsPerHour="41.99" departLane="best" departPos="random" departSpeed="0" from="193253433#2" to="193253427#0"/>
  <flow id="car_198876045#1_28231434_00015290" type="car" begin="0" end="3600" vehsPerHour="20.47" departLane="best" departPos="random" departSpeed="0" from="198876045#1" to="28231434"/>
  <flow id="car_198876045#1_23241821#0_00015290" type="car" begin="0" end="3600" vehsPerHour="19.37" departLane="best" departPos="random" departSpeed="0" from="198876045#1" to="23241821#0"/>
  <flow id="car_198876045#1_198876042#0_00015290" type="car" begin="0" end="3600" vehsPerHour="16.27" departLane="best" departPos="random" departSpeed="0" from="198876045#1" to="198876042#0"/>
  <flow id="car_198876045#1_193253427#0_00015290" type="car" begin="0" end="3600" vehsPerHour="15.08" departLane="best" departPos="random" departSpeed="0" from="198876045#1" to="193253427#0"/>
  <flow id="car_198876045#1_198876043#2_00015290" type="car" begin="0" end="3600" vehsPerHour="12.85" departLane="best" departPos="random" departSpeed="0" from="198876045#1" to="198876043#2"/>
  <flow id="motorcycle_198876045#1_28231434_00015290" type="motorcycle" begin="0" end="3600" vehsPerHour="59.98" departLane="best" departPos="random" departSpeed="0" from="198876045#1" to="28231434"/>
  <flow id="motorcycle_198876045#1_23241821#0_00015290" type="motorcycle" begin="0" end="3600" vehsPerHour="56.40" departLane="best" departPos="random" departSpeed="0" from="198876045#1" to="23241821#0"/>
  <flow id="motorcycle_198876045#1_198876042#0_00015290" type="motorcycle" begin="0" end="3600" vehsPerHour="50.13" departLane="best" departPos="random" departSpeed="0" from="198876045#1" to="198876042#0"/>
  <flow id="motorcycle_198876045#1_193253427#0_00015290" type="motorcycle" begin="0" end="3600" vehsPerHour="47.25" departLane="best" departPos="random" departSpeed="0" from="198876045#1" to="193253427#0"/>
  <flow id="motorcycle_198876045#1_198876043#2_00015290" type="motorcycle" begin="0" end="3600" vehsPerHour="43.15" departLane="best" departPos="random" departSpeed="0" from="198876045#1" to="198876043#2"/>
  <flow id="car_-28231434_23241821#0_00015290" type="car" begin="0" end="3600" vehsPerHour="15.16" departLane="best" departPos="random" departSpeed="0" from="-28231434" to="23241821#0"/>
  <flow id="car_-28231434_198876042#0_00015290" type="car" begin="0" end="3600" vehsPerHour="12.57" departLane="best" departPos="random" departSpeed="0" from="-28231434" to="198876042#0"/>
  <flow id="car_-28231434_193253427#0_00015290" type="car" begin="0" end="3600" vehsPerHour="10.60" departLane="best" departPos="random" departSpeed="0" from="-28231434" to="193253427#0"/>
  <flow id="car_-28231434_198876043#2_00015290" type="car" begin="0" end="3600" vehsPerHour="9.90" departLane="best" departPos="random" departSpeed="0" from="-28231434" to="198876043#2"/>
  <flow id="car_-28231434_28231434_00015290" type="car" begin="0" end="3600" vehsPerHour="8.49" departLane="best" departPos="random" departSpeed="0" from="-28231434" to="28231434"/>
  <flow id="motorcycle_-28231434_23241821#0_00015290" type="motorcycle" begin="0" end="3600" vehsPerHour="41.82" departLane="best" departPos="random" departSpeed="0" from="-28231434" to="23241821#0"/>
  <flow id="motorcycle_-28231434_198876042#0_00015290" type="motorcycle" begin="0" end="3600" vehsPerHour="38.87" departLane="best" departPos="random" departSpeed="0" from="-28231434" to="198876042#0"/>
  <flow id="motorcycle_-28231434_193253427#0_00015290" type="motorcycle" begin="0" end="3600" vehsPerHour="32.84" departLane="best" departPos="random" departSpeed="0" from="-28231434" to="193253427#0"/>
  <flow id="motorcycle_-28231434_198876043#2_00015290" type="motorcycle" begin="0" end="3600" vehsPerHour="29.77" departLane="best" departPos="random" departSpeed="0" from="-28231434" to="198876043#2"/>
  <flow id="motorcycle_-28231434_28231434_00015290" type="motorcycle" begin="0" end="3600" vehsPerHour="25.17" departLane="best" departPos="random" departSpeed="0" from="-28231434" to="28231434"/>
  <flow id="car_-55029244#0_198876042#0_00015290" type="car" begin="0" end="3600" vehsPerHour="15.91" departLane="best" departPos="random" departSpeed="0" from="-55029244#0" to="198876042#0"/>
  <flow id="car_-55029244#0_193253427#0_00015290" type="car" begin="0" end="3600" vehsPerHour="14.71" departLane="best" departPos="random" departSpeed="0" from="-55029244#0" to="193253427#0"/>
  <flow id="car_-55029244#0_198876043#2_00015290" type="car" begin="0" end="3600" vehsPerHour="12.95" departLane="best" departPos="random" departSpeed="0" from="-55029244#0" to="198876043#2"/>
  <flow id="car_-55029244#0_28231434_00015290" type="car" begin="0" end="3600" vehsPerHour="10.75" departLane="best" departPos="random" departSpeed="0" from="-55029244#0" to="28231434"/>
  <flow id="car_-55029244#0_23241821#0_00015290" type="car" begin="0" end="3600" vehsPerHour="8.12" departLane="best" departPos="random" departSpeed="0" from="-55029244#0" to="23241821#0"/>
  <flow id="motorcycle_-55029244#0_198876042#0_00015290" type="motorcycle" begin="0" end="3600" vehsPerHour="48.54" departLane="best" departPos="random" departSpeed="0" from="-55029244#0" to="198876042#0"/>
  <flow id="motorcycle_-55029244#0_193253427#0_00015290" type="motorcycle" begin="0" end="3600" vehsPerHour="40.57" departLane="best" departPos="random" departSpeed="0" from="-55029244#0" to="193253427#0"/>
  <flow id="motorcycle_-55029244#0_198876043#2_00015290" type="motorcycle" begin="0" end="3600" vehsPerHour="37.76" departLane="best" departPos="random" departSpeed="0" from="-55029244#0" to="198876043#2"/>
  <flow id="motorcycle_-55029244#0_28231434_00015290" type="motorcycle" begin="0" end="3600" vehsPerHour="33.72" departLane="best" departPos="random" departSpeed="0" from="-55029244#0" to="28231434"/>
  <flow id="motorcycle_-55029244#0_23241821#0_00015290" type="motorcycle" begin="0" end="3600" vehsPerHour="27.61" departLane="best" departPos="random" departSpeed="0" from="-55029244#0" to="23241821#0"/>
  <flow id="car_34241530#0_198876042#0_00015290" type="car" begin="0" end="3600" vehsPerHour="16.23" departLane="best" departPos="random" departSpeed="0" from="34241530#0" to="198876042#0"/>
  <flow id="car_34241530#0_193253427#0_00015290" type="car" begin="0" end="3600" vehsPerHour="15.21" departLane="best" departPos="random" departSpeed="0" from="34241530#0" to="193253427#0"/>
  <flow id="car_34241530#0_198876043#2_00015290" type="car" begin="0" end="3600" vehsPerHour="12.40" departLane="best" departPos="random" departSpeed="0" from="34241530#0" to="198876043#2"/>
  <flow id="car_34241530#0_28231434_00015290" type="car" begin="0" end="3600" vehsPerHour="10.37" departLane="best" departPos="random" departSpeed="0" from="34241530#0" to="28231434"/>
  <flow id="car_34241530#0_23241821#0_00015290" type="car" begin="0" end="3600" vehsPerHour="8.36" departLane="best" departPos="random" departSpeed="0" from="34241530#0" to="23241821#0"/>
  <flow id="motorcycle_34241530#0_198876042#0_00015290" type="motorcycle" begin="0" end="3600" vehsPerHour="51.25" departLane="best" departPos="random" departSpeed="0" from="34241530#0" to="198876042#0"/>
  <flow id="motorcycle_34241530#0_193253427#0_00015290" type="motorcycle" begin="0" end="3600" vehsPerHour="42.40" departLane="best" departPos="random" departSpeed="0" from="34241530#0" to="193253427#0"/>
  <flow id="motorcycle_34241530#0_198876043#2_00015290" type="motorcycle" begin="0" end="3600" vehsPerHour="37.92" departLane="best" departPos="random" departSpeed="0" from="34241530#0" to="198876043#2"/>
  <flow id="motorcycle_34241530#0_28231434_00015290" type="motorcycle" begin="0" end="3600" vehsPerHour="31.64" departLane="best" departPos="random" departSpeed="0" from="34241530#0" to="28231434"/>
  <flow id="motorcycle_34241530#0_23241821#0_00015290" type="motorcycle" begin="0" end="3600" vehsPerHour="28.51" departLane="best" departPos="random" departSpeed="0" from="34241530#0" to="23241821#0"/>
  <flow id="truck_34241530#0_198876042#0_00015290" type="truck" begin="0" end="3600" vehsPerHour="6.93" departLane="best" departPos="random" departSpeed="0" from="34241530#0" to="198876042#0"/>
</routes>
