<routes>
<vType id="car" vClass="passenger" accel="2.6" decel="4.5" sigma="0.5" length="5.0" maxSpeed="13.9"/>
<vType id="motorcycle" vClass="motorcycle" accel="3.0" decel="5.0" sigma="0.5" length="2.0" maxSpeed="14.0"/>
<vType id="truck" vClass="truck" accel="1.2" decel="3.5" sigma="0.5" length="12.0" maxSpeed="10.0"/>

  <flow id="car_222682222#1_193253427#0_0009d88f" type="car" begin="0" end="3600" vehsPerHour="38.62" departLane="best" departPos="random" departSpeed="0" from="222682222#1" to="193253427#0"/>
  <flow id="car_222682222#1_198876043#0_0009d88f" type="car" begin="0" end="3600" vehsPerHour="30.99" departLane="best" departPos="random" departSpeed="0" from="222682222#1" to="198876043#0"/>
  <flow id="car_222682222#1_28231434_0009d88f" type="car" begin="0" end="3600" vehsPerHour="29.76" departLane="best" departPos="random" departSpeed="0" from="222682222#1" to="28231434"/>
  <flow id="car_222682222#1_23241821#0_0009d88f" type="car" begin="0" end="3600" vehsPerHour="24.38" departLane="best" departPos="random" departSpeed="0" from="222682222#1" to="23241821#0"/>
  <flow id="car_222682222#1_198876042#0_0009d88f" type="car" begin="0" end="3600" vehsPerHour="21.60" departLane="best" departPos="random" departSpeed="0" from="222682222#1" to="198876042#0"/>
  <flow id="motorcycle_222682222#1_193253427#0_0009d88f" type="motorcycle" begin="0" end="3600" vehsPerHour="106.34" departLane="best" departPos="random" departSpeed="0" from="222682222#1" to="193253427#0"/>
  <flow id="motorcycle_222682222#1_198876043#0_0009d88f" type="motorcycle" begin="0" end="3600" vehsPerHour="100.15" departLane="best" departPos="random" departSpeed="0" from="222682222#1" to="198876043#0"/>
  <flow id="motorcycle_222682222#1_28231434_0009d88f" type="motorcycle" begin="0" end="3600" vehsPerHour="84.96" departLane="best" departPos="random" departSpeed="0" from="222682222#1" to="28231434"/>
  <flow id="motorcycle_222682222#1_23241821#0_0009d88f" type="motorcycle" begin="0" end="3600" vehsPerHour="67.08" departLane="best" departPos="random" departSpeed="0" from="222682222#1" to="23241821#0"/>
  <flow id="motorcycle_222682222#1_198876042#0_0009d88f" type="motorcycle" begin="0" end="3600" vehsPerHour="62.81" departLane="best" departPos="random" departSpeed="0" from="222682222#1" to="198876042#0"/>
  <flow id="car_193253433#2_198876043#0_0009d88f" type="car" begin="0" end="3600" vehsPerHour="24.99" departLane="best" departPos="random" departSpeed="0" from="193253433#2" to="198876043#0"/>
  <flow id="car_193253433#2_28231434_0009d88f" type="car" begin="0" end="3600" vehsPerHour="21.36" departLane="best" departPos="random" departSpeed="0" from="193253433#2" to="28231434"/>
  <flow id="car_193253433#2_23241821#0_0009d88f" type="car" begin="0" end="3600" vehsPerHour="21.13" departLane="best" departPos="random" departSpeed="0" from="193253433#2" to="23241821#0"/>
  <flow id="car_193253433#2_198876042#0_0009d88f" type="car" begin="0" end="3600" vehsPerHour="16.24" departLane="best" departPos="random" departSpeed="0" from="193253433#2" to="198876042#0"/>
  <flow id="car_193253433#2_193253427#0_0009d88f" type="car" begin="0" end="3600" vehsPerHour="14.51" departLane="best" departPos="random" departSpeed="0" from="193253433#2" to="193253427#0"/>
  <flow id="motorcycle_193253433#2_198876043#0_0009d88f" type="motorcycle" begin="0" end="3600" vehsPerHour="69.76" departLane="best" departPos="random" departSpeed="0" from="193253433#2" to="198876043#0"/>
  <flow id="motorcycle_193253433#2_28231434_0009d88f" type="motorcycle" begin="0" end="3600" vehsPerHour="62.52" departLane="best" departPos="random" departSpeed="0" from="193253433#2" to="28231434"/>
  <flow id="motorcycle_193253433#2_23241821#0_0009d88f" type="motorcycle" begin="0" end="3600" vehsPerHour="58.94" departLane="best" departPos="random" departSpeed="0" from="193253433#2" to="23241821#0"/>
  <flow id="motorcycle_193253433#2_198876042#0_0009d88f" type="motorcycle" begin="0" end="3600" vehsPerHour="47.28" departLane="best" departPos="random" departSpeed="0" from="193253433#2" to="198876042#0"/>
  <flow id="motorcycle_193253433#2_193253427#0_0009d88f" type="motorcycle" begin="0" end="3600" vehsPerHour="39.70" departLane="best" departPos="random" departSpeed="0" from="193253433#2" to="193253427#0"/>
  <flow id="car_198876045#1_28231434_0009d88f" type="car" begin="0" end="3600" vehsPerHour="21.52" departLane="best" departPos="random" departSpeed="0" from="198876045#1" to="28231434"/>
  <flow id="car_198876045#1_23241821#0_0009d88f" type="car" begin="0" end="3600" vehsPerHour="19.50" departLane="best" departPos="random" departSpeed="0" from="198876045#1" to="23241821#0"/>
  <flow id="car_198876045#1_198876042#0_0009d88f" type="car" begin="0" end="3600" vehsPerHour="16.90" departLane="best" departPos="random" departSpeed="0" from="198876045#1" to="198876042#0"/>
  <flow id="car_198876045#1_193253427#0_0009d88f" type="car" begin="0" end="3600" vehsPerHour="14.13" departLane="best" departPos="random" departSpeed="0" from="198876045#1" to="193253427#0"/>
  <flow id="car_198876045#1_198876043#2_0009d88f" type="car" begin="0" end="3600" vehsPerHour="12.69" departLane="best" departPos="random" departSpeed="0" from="198876045#1" to="198876043#2"/>
  <flow id="motorcycle_198876045#1_28231434_0009d88f" type="motorcycle" begin="0" end="3600" vehsPerHour="63.47" departLane="best" departPos="random" departSpeed="0" from="198876045#1" to="28231434"/>
  <flow id="motorcycle_198876045#1_23241821#0_0009d88f" type="motorcycle" begin="0" end="3600" vehsPerHour="53.71" departLane="best" departPos="random" departSpeed="0" from="198876045#1" to="23241821#0"/>
  <flow id="motorcycle_198876045#1_198876042#0_0009d88f" type="motorcycle" begin="0" end="3600" vehsPerHour="47.42" departLane="best" departPos="random" departSpeed="0" from="198876045#1" to="198876042#0"/>
  <flow id="motorcycle_198876045#1_193253427#0_0009d88f" type="motorcycle" begin="0" end="3600" vehsPerHour="46.10" departLane="best" departPos="random" departSpeed="0" from="198876045#1" to="193253427#0"/>
  <flow id="motorcycle_198876045#1_198876043#2_0009d88f" type="motorcycle" begin="0" end="3600" vehsPerHour="39.70" departLane="best" departPos="random" departSpeed="0" from="198876045#1" to="198876043#2"/>
  <flow id="car_-28231434_23241821#0_0009d88f" type="car" begin="0" end="3600" vehsPerHour="14.39" departLane="best" departPos="random" departSpeed="0" from="-28231434" to="23241821#0"/>
  <flow id="car_-28231434_198876042#0_0009d88f" type="car" begin="0" end="3600" vehsPerHour="12.28" departLane="best" departPos="random" departSpeed="0" from="-28231434" to="198876042#0"/>
  <flow id="car_-28231434_193253427#0_0009d88f" type="car" begin="0" end="3600" vehsPerHour="10.22" departLane="best" departPos="random" departSpeed="0" from="-28231434" to="193253427#0"/>
  <flow id="car_-28231434_198876043#2_0009d88f" type="car" begin="0" end="3600" vehsPerHour="10.47" departLane="best" departPos="random" departSpeed="0" from="-28231434" to="198876043#2"/>
  <flow id="car_-28231434_28231434_0009d88f" type="car" begin="0" end="3600" vehsPerHour="8.54" departLane="best" departPos="random" departSpeed="0" from="-28231434" to="28231434"/>
  <flow id="motorcycle_-28231434_23241821#0_0009d88f" type="motorcycle" begin="0" end="3600" vehsPerHour="43.36" departLane="best" departPos="random" departSpeed="0" from="-28231434" to="23241821#0"/>
  <flow id="motorcycle_-28231434_198876042#0_0009d88f" type="motorcycle" begin="0" end="3600" vehsPerHour="38.06" departLane="best" departPos="random" departSpeed="0" from="-28231434" to="198876042#0"/>
  <flow id="motorcycle_-28231434_193253427#0_0009d88f" type="motorcycle" begin="0" end="3600" vehsPerHour="31.62" departLane="best" departPos="random" departSpeed="0" from="-28231434" to="193253427#0"/>
  <flow id="motorcycle_-28231434_198876043#2_0009d88f" type="motorcycle" begin="0" end="3600" vehsPerHour="29.42" departLane="best" departPos="random" departSpeed="0" from="-28231434" to="198876043#2"/>
  <flow id="motorcycle_-28231434_28231434_0009d88f" type="motorcycle" begin="0" end="3600" vehsPerHour="25.13" departLane="best" departPos="random" departSpeed="0" from="-28231434" to="28231434"/>
  <flow id="car_-55029244#0_198876042#0_0009d88f" type="car" begin="0" end="3600" vehsPerHour="16.35" departLane="best" departPos="random" departSpeed="0" from="-55029244#0" to="198876042#0"/>
  <flow id="car_-55029244#0_193253427#0_0009d88f" type="car" begin="0" end="3600" vehsPerHour="14.00" departLane="best" departPos="random" departSpeed="0" from="-55029244#0" to="193253427#0"/>
  <flow id="car_-55029244#0_198876043#2_0009d88f" type="car" begin="0" end="3600" vehsPerHour="12.54" departLane="best" departPos="random" departSpeed="0" from="-55029244#0" to="198876043#2"/>
  <flow id="car_-55029244#0_28231434_0009d88f" type="car" begin="0" end="3600" vehsPerHour="10.23" departLane="best" departPos="random" departSpeed="0" from="-55029244#0" to="28231434"/>
  <flow id="car_-55029244#0_23241821#0_0009d88f" type="car" begin="0" end="3600" vehsPerHour="8.68" departLane="best" departPos="random" departSpeed="0" from="-55029244#0" to="23241821#0"/>
  <flow id="motorcycle_-55029244#0_198876042#0_0009d88f" type="motorcycle" begin="0" end="3600" vehsPerHour="47.83" departLane="best" departPos="random" departSpeed="0" from="-55029244#0" to="198876042#0"/>
  <flow id="motorcycle_-55029244#0_193253427#0_0009d88f" type="motorcycle" begin="0" end="3600" vehsPerHour="39.42" departLane="best" departPos="random" departSpeed="0" from="-55029244#0" to="193253427#0"/>
  <flow id="motorcycle_-55029244#0_198876043#2_0009d88f" type="motorcycle" begin="0" end="3600" vehsPerHour="36.40" departLane="best" departPos="random" departSpeed="0" from="-55029244#0" to="198876043#2"/>
  <flow id="motorcycle_-55029244#0_28231434_0009d88f" type="motorcycle" begin="0" end="3600" vehsPerHour="32.19" departLane="best" departPos="random" departSpeed="0" from="-55029244#0" to="28231434"/>
  <flow id="motorcycle_-55029244#0_23241821#0_0009d88f" type="motorcycle" begin="0" end="3600" vehsPerHour="28.72" departLane="best" departPos="random" departSpeed="0" from="-55029244#0" to="23241821#0"/>
  <flow id="car_34241530#0_198876042#0_0009d88f" type="car" begin="0" end="3600" vehsPerHour="17.07" departLane="best" departPos="random" departSpeed="0" from="34241530#0" to="198876042#0"/>
  <flow id="car_34241530#0_193253427#0_0009d88f" type="car" begin="0" end="3600" vehsPerHour="13.94" departLane="best" departPos="random" departSpeed="0" from="34241530#0" to="193253427#0"/>
  <flow id="car_34241530#0_198876043#2_0009d88f" type="car" begin="0" end="3600" vehsPerHour="11.92" departLane="best" departPos="random" departSpeed="0" from="34241530#0" to="198876043#2"/>
  <flow id="car_34241530#0_28231434_0009d88f" type="car" begin="0" end="3600" vehsPerHour="10.64" departLane="best" departPos="random" departSpeed="0" from="34241530#0" to="28231434"/>
  <flow id="car_34241530#0_23241821#0_0009d88f" type="car" begin="0" end="3600" vehsPerHour="7.94" departLane="best" departPos="random" departSpeed="0" from="34241530#0" to="23241821#0"/>
  <flow id="motorcycle_34241530#0_198876042#0_0009d88f" type="motorcycle" begin="0" end="3600" vehsPerHour="50.02" departLane="best" departPos="random" departSpeed="0" from="34241530#0" to="198876042#0"/>
  <flow id="motorcycle_34241530#0_193253427#0_0009d88f" type="motorcycle" begin="0" end="3600" vehsPerHour="42.25" departLane="best" departPos="random" departSpeed="0" from="34241530#0" to="193253427#0"/>
  <flow id="motorcycle_34241530#0_198876043#2_0009d88f" type="motorcycle" begin="0" end="3600" vehsPerHour="36.24" departLane="best" departPos="random" departSpeed="0" from="34241530#0" to="198876043#2"/>
  <flow id="motorcycle_34241530#0_28231434_0009d88f" type="motorcycle" begin="0" end="3600" vehsPerHour="31.64" departLane="best" departPos="random" departSpeed="0" from="34241530#0" to="28231434"/>
  <flow id="motorcycle_34241530#0_23241821#0_0009d88f" type="motorcycle" begin="0" end="3600" vehsPerHour="29.60" departLane="best" departPos="random" departSpeed="0" from="34241530#0" to="23241821#0"/>
  <flow id="truck_34241530#0_198876042#0_0009d88f" type="truck" begin="0" end="3600" vehsPerHour="7.59" departLane="best" departPos="random" departSpeed="0" from="34241530#0" to="198876042#0"/>
</routes>
