<routes>
<vType id="car" vClass="passenger" accel="2.6" decel="4.5" sigma="0.5" length="5.0" maxSpeed="13.9"/>
<vType id="motorcycle" vClass="motorcycle" accel="3.0" decel="5.0" sigma="0.5" length="2.0" maxSpeed="14.0"/>
<vType id="truck" vClass="truck" accel="1.2" decel="3.5" sigma="0.5" length="12.0" maxSpeed="10.0"/>

  <flow id="car_222682222#1_193253427#0_000c33b2" type="car" begin="0" end="3600" vehsPerHour="38.33" departLane="best" departPos="random" departSpeed="0" from="222682222#1" to="193253427#0"/>
  <flow id="car_222682222#1_198876043#0_000c33b2" type="car" begin="0" end="3600" vehsPerHour="29.67" departLane="best" departPos="random" departSpeed="0" from="222682222#1" to="198876043#0"/>
  <flow id="car_222682222#1_28231434_000c33b2" type="car" begin="0" end="3600" vehsPerHour="32.04" departLane="best" departPos="random" departSpeed="0" from="222682222#1" to="28231434"/>
  <flow id="car_222682222#1_23241821#0_000c33b2" type="car" begin="0" end="3600" vehsPerHour="25.36" departLane="best" departPos="random" departSpeed="0" from="222682222#1" to="23241821#0"/>
  <flow id="car_222682222#1_198876042#0_000c33b2" type="car" begin="0" end="3600" vehsPerHour="20.28" departLane="best" departPos="random" departSpeed="0" from="222682222#1" to="198876042#0"/>
  <flow id="motorcycle_222682222#1_193253427#0_000c33b2" type="motorcycle" begin="0" end="3600" vehsPerHour="110.47" departLane="best" departPos="random" departSpeed="0" from="222682222#1" to="193253427#0"/>
  <flow id="motorcycle_222682222#1_198876043#0_000c33b2" type="motorcycle" begin="0" end="3600" vehsPerHour="99.81" departLane="best" departPos="random" departSpeed="0" from="222682222#1" to="198876043#0"/>
  <flow id="motorcycle_222682222#1_28231434_000c33b2" type="motorcycle" begin="0" end="3600" vehsPerHour="85.22" departLane="best" departPos="random" departSpeed="0" from="222682222#1" to="28231434"/>
  <flow id="motorcycle_222682222#1_23241821#0_000c33b2" type="motorcycle" begin="0" end="3600" vehsPerHour="68.37" departLane="best" departPos="random" departSpeed="0" from="222682222#1" to="23241821#0"/>
  <flow id="motorcycle_222682222#1_198876042#0_000c33b2" type="motorcycle" begin="0" end="3600" vehsPerHour="65.21" departLane="best" departPos="random" departSpeed="0" from="222682222#1" to="198876042#0"/>
  <flow id="car_193253433#2_198876043#0_000c33b2" type="car" begin="0" end="3600" vehsPerHour="25.40" departLane="best" departPos="random" departSpeed="0" from="193253433#2" to="198876043#0"/>
  <flow id="car_193253433#2_28231434_000c33b2" type="car" begin="0" end="3600" vehsPerHour="20.43" departLane="best" departPos="random" departSpeed="0" from="193253433#2" to="28231434"/>
  <flow id="car_193253433#2_23241821#0_000c33b2" type="car" begin="0" end="3600" vehsPerHour="20.50" departLane="best" departPos="random" departSpeed="0" from="193253433#2" to="23241821#0"/>
  <flow id="car_193253433#2_198876042#0_000c33b2" type="car" begin="0" end="3600" vehsPerHour="16.11" departLane="best" departPos="random" departSpeed="0" from="193253433#2" to="198876042#0"/>
  <flow id="car_193253433#2_193253427#0_000c33b2" type="car" begin="0" end="3600" vehsPerHour="14.57" departLane="best" departPos="random" departSpeed="0" from="193253433#2" to="193253427#0"/>
  <flow id="motorcycle_193253433#2_198876043#0_000c33b2" type="motorcycle" begin="0" end="3600" vehsPerHour="70.70" departLane="best" departPos="random" departSpeed="0" from="193253433#2" to="198876043#0"/>
  <flow id="motorcycle_193253433#2_28231434_000c33b2" type="motorcycle" begin="0" end="3600" vehsPerHour="61.07" departLane="best" departPos="random" departSpeed="0" from="193253433#2" to="28231434"/>
  <flow id="motorcycle_193253433#2_23241821#0_000c33b2" type="motorcycle" begin="0" end="3600" vehsPerHour="59.38" departLane="best" departPos="random" departSpeed="0" from="193253433#2" to="23241821#0"/>
  <flow id="motorcycle_193253433#2_198876042#0_000c33b2" type="motorcycle" begin="0" end="3600" vehsPerHour="49.00" departLane="best" departPos="random" departSpeed="0" from="193253433#2" to="198876042#0"/>
  <flow id="motorcycle_193253433#2_193253427#0_000c33b2" type="motorcycle" begin="0" end="3600" vehsPerHour="41.56" departLane="best" departPos="random" departSpeed="0" from="193253433#2" to="193253427#0"/>
  <flow id="car_198876045#1_28231434_000c33b2" type="car" begin="0" end="3600" vehsPerHour="20.98" departLane="best" departPos="random" departSpeed="0" from="198876045#1" to="28231434"/>
  <flow id="car_198876045#1_23241821#0_000c33b2" type="car" begin="0" end="3600" vehsPerHour="19.09" departLane="best" departPos="random" departSpeed="0" from="198876045#1" to="23241821#0"/>
  <flow id="car_198876045#1_198876042#0_000c33b2" type="car" begin="0" end="3600" vehsPerHour="16.44" departLane="best" departPos="random" departSpeed="0" from="198876045#1" to="198876042#0"/>
  <flow id="car_198876045#1_193253427#0_000c33b2" type="car" begin="0" end="3600" vehsPerHour="14.99" departLane="best" departPos="random" departSpeed="0" from="198876045#1" to="193253427#0"/>
  <flow id="car_198876045#1_198876043#2_000c33b2" type="car" begin="0" end="3600" vehsPerHour="12.87" departLane="best" departPos="random" departSpeed="0" from="198876045#1" to="198876043#2"/>
  <flow id="motorcycle_198876045#1_28231434_000c33b2" type="motorcycle" begin="0" end="3600" vehsPerHour="62.34" departLane="best" departPos="random" departSpeed="0" from="198876045#1" to="28231434"/>
  <flow id="motorcycle_198876045#1_23241821#0_000c33b2" type="motorcycle" begin="0" end="3600" vehsPerHour="55.40" departLane="best" departPos="random" departSpeed="0" from="198876045#1" to="23241821#0"/>
  <flow id="motorcycle_198876045#1_198876042#0_000c33b2" type="motorcycle" begin="0" end="3600" vehsPerHour="51.61" departLane="best" departPos="random" departSpeed="0" from="198876045#1" to="198876042#0"/>
  <flow id="motorcycle_198876045#1_193253427#0_000c33b2" type="motorcycle" begin="0" end="3600" vehsPerHour="44.88" departLane="best" departPos="random" departSpeed="0" from="198876045#1" to="193253427#0"/>
  <flow id="motorcycle_198876045#1_198876043#2_000c33b2" type="motorcycle" begin="0" end="3600" vehsPerHour="39.97" departLane="best" departPos="random" departSpeed="0" from="198876045#1" to="198876043#2"/>
  <flow id="car_-28231434_23241821#0_000c33b2" type="car" begin="0" end="3600" vehsPerHour="14.50" departLane="best" departPos="random" departSpeed="0" from="-28231434" to="23241821#0"/>
  <flow id="car_-28231434_198876042#0_000c33b2" type="car" begin="0" end="3600" vehsPerHour="13.04" departLane="best" departPos="random" departSpeed="0" from="-28231434" to="198876042#0"/>
  <flow id="car_-28231434_193253427#0_000c33b2" type="car" begin="0" end="3600" vehsPerHour="10.09" departLane="best" departPos="random" departSpeed="0" from="-28231434" to="193253427#0"/>
  <flow id="car_-28231434_198876043#2_000c33b2" type="car" begin="0" end="3600" vehsPerHour="10.26" departLane="best" departPos="random" departSpeed="0" from="-28231434" to="198876043#2"/>
  <flow id="car_-28231434_28231434_000c33b2" type="car" begin="0" end="3600" vehsPerHour="8.61" departLane="best" departPos="random" departSpeed="0" from="-28231434" to="28231434"/>
  <flow id="motorcycle_-28231434_23241821#0_000c33b2" type="motorcycle" begin="0" end="3600" vehsPerHour="42.28" departLane="best" departPos="random" departSpeed="0" from="-28231434" to="23241821#0"/>
  <flow id="motorcycle_-28231434_198876042#0_000c33b2" type="motorcycle" begin="0" end="3600" vehsPerHour="38.99" departLane="best" departPos="random" departSpeed="0" from="-28231434" to="198876042#0"/>
  <flow id="motorcycle_-28231434_193253427#0_000c33b2" type="motorcycle" begin="0" end="3600" vehsPerHour="34.53" departLane="best" departPos="random" departSpeed="0" from="-28231434" to="193253427#0"/>
  <flow id="motorcycle_-28231434_198876043#2_000c33b2" type="motorcycle" begin="0" end="3600" vehsPerHour="29.47" departLane="best" departPos="random" departSpeed="0" from="-28231434" to="198876043#2"/>
  <flow id="motorcycle_-28231434_28231434_000c33b2" type="motorcycle" begin="0" end="3600" vehsPerHour="23.65" departLane="best" departPos="random" departSpeed="0" from="-28231434" to="28231434"/>
  <flow id="car_-55029244#0_198876042#0_000c33b2" type="car" begin="0" end="3600" vehsPerHour="17.00" departLane="best" departPos="random" departSpeed="0" from="-55029244#0" to="198876042#0"/>
  <flow id="car_-55029244#0_193253427#0_000c33b2" type="car" begin="0" end="3600" vehsPerHour="14.36" departLane="best" departPos="random" departSpeed="0" from="-55029244#0" to="193253427#0"/>
  <flow id="car_-55029244#0_198876043#2_000c33b2" type="car" begin="0" end="3600" vehsPerHour="12.79" departLane="best" departPos="random" departSpeed="0" from="-55029244#0" to="198876043#2"/>
  <flow id="car_-55029244#0_28231434_000c33b2" type="car" begin="0" end="3600" vehsPerHour="10.03" departLane="best" departPos="random" departSpeed="0" from="-55029244#0" to="28231434"/>
  <flow id="car_-55029244#0_23241821#0_000c33b2" type="car" begin="0" end="3600" vehsPerHour="8.38" departLane="best" departPos="random" departSpeed="0" from="-55029244#0" to="23241821#0"/>
  <flow id="motorcycle_-55029244#0_198876042#0_000c33b2" type="motorcycle" begin="0" end="3600" vehsPerHour="51.75" departLane="best" departPos="random" departSpeed="0" from="-55029244#0" to="198876042#0"/>
  <flow id="motorcycle_-55029244#0_193253427#0_000c33b2" type="motorcycle" begin="0" end="3600" vehsPerHour="40.76" departLane="best" departPos="random" departSpeed="0" from="-55029244#0" to="193253427#0"/>
  <flow id="motorcycle_-55029244#0_198876043#2_000c33b2" type="motorcycle" begin="0" end="3600" vehsPerHour="35.63" departLane="best" departPos="random" departSpeed="0" from="-55029244#0" to="198876043#2"/>
  <flow id="motorcycle_-55029244#0_28231434_000c33b2" type="motorcycle" begin="0" end="3600" vehsPerHour="34.10" departLane="best" departPos="random" departSpeed="0" from="-55029244#0" to="28231434"/>
  <flow id="motorcycle_-55029244#0_23241821#0_000c33b2" type="motorcycle" begin="0" end="3600" vehsPerHour="28.67" departLane="best" departPos="random" departSpeed="0" from="-55029244#0" to="23241821#0"/>
  <flow id="car_34241530#0_198876042#0_000c33b2" type="car" begin="0" end="3600" vehsPerHour="16.37" departLane="best" departPos="random" departSpeed="0" from="34241530#0" to="198876042#0"/>
  <flow id="car_34241530#0_193253427#0_000c33b2" type="car" begin="0" end="3600" vehsPerHour="14.31" departLane="best" departPos="random" departSpeed="0" from="34241530#0" to="193253427#0"/>
  <flow id="car_34241530#0_198876043#2_000c33b2" type="car" begin="0" end="3600" vehsPerHour="12.69" departLane="best" departPos="random" departSpeed="0" from="34241530#0" to="198876043#2"/>
  <flow id="car_34241530#0_28231434_000c33b2" type="car" begin="0" end="3600" vehsPerHour="10.70" departLane="best" departPos="random" departSpeed="0" from="34241530#0" to="28231434"/>
  <flow id="car_34241530#0_23241821#0_000c33b2" type="car" begin="0" end="3600" vehsPerHour="8.05" departLane="best" departPos="random" departSpeed="0" from="34241530#0" to="23241821#0"/>
  <flow id="motorcycle_34241530#0_198876042#0_000c33b2" type="motorcycle" begin="0" end="3600" vehsPerHour="51.89" departLane="best" departPos="random" departSpeed="0" from="34241530#0" to="198876042#0"/>
  <flow id="motorcycle_34241530#0_193253427#0_000c33b2" type="motorcycle" begin="0" end="3600" vehsPerHour="42.14" departLane="best" departPos="random" departSpeed="0" from="34241530#0" to="193253427#0"/>
  <flow id="motorcycle_34241530#0_198876043#2_000c33b2" type="motorcycle" begin="0" end="3600" vehsPerHour="38.10" departLane="best" departPos="random" departSpeed="0" from="34241530#0" to="198876043#2"/>
  <flow id="motorcycle_34241530#0_28231434_000c33b2" type="motorcycle" begin="0" end="3600" vehsPerHour="32.74" departLane="best" departPos="random" departSpeed="0" from="34241530#0" to="28231434"/>
  <flow id="motorcycle_34241530#0_23241821#0_000c33b2" type="motorcycle" begin="0" end="3600" vehsPerHour="29.58" departLane="best" departPos="random" departSpeed="0" from="34241530#0" to="23241821#0"/>
  <flow id="truck_34241530#0_198876042#0_000c33b2" type="truck" begin="0" end="3600" vehsPerHour="7.55" departLane="best" departPos="random" departSpeed="0" from="34241530#0" to="198876042#0"/>
</routes>
