<routes>
<vType id="car" vClass="passenger" accel="2.6" decel="4.5" sigma="0.5" length="5.0" maxSpeed="13.9"/>
<vType id="motorcycle" vClass="motorcycle" accel="3.0" decel="5.0" sigma="0.5" length="2.0" maxSpeed="14.0"/>
<vType id="truck" vClass="truck" accel="1.2" decel="3.5" sigma="0.5" length="12.0" maxSpeed="10.0"/>

  <flow id="car_222682222#1_193253427#0_00095bd5" type="car" begin="0" end="3600" vehsPerHour="36.40" departLane="best" departPos="random" departSpeed="0" from="222682222#1" to="193253427#0"/>
  <flow id="car_222682222#1_198876043#0_00095bd5" type="car" begin="0" end="3600" vehsPerHour="29.70" departLane="best" departPos="random" departSpeed="0" from="222682222#1" to="198876043#0"/>
  <flow id="car_222682222#1_28231434_00095bd5" type="car" begin="0" end="3600" vehsPerHour="29.99" departLane="best" departPos="random" departSpeed="0" from="222682222#1" to="28231434"/>
  <flow id="car_222682222#1_23241821#0_00095bd5" type="car" begin="0" end="3600" vehsPerHour="25.33" departLane="best" departPos="random" departSpeed="0" from="222682222#1" to="23241821#0"/>
  <flow id="car_222682222#1_198876042#0_00095bd5" type="car" begin="0" end="3600" vehsPerHour="21.15" departLane="best" departPos="random" departSpeed="0" from="222682222#1" to="198876042#0"/>
  <flow id="motorcycle_222682222#1_193253427#0_00095bd5" type="motorcycle" begin="0" end="3600" vehsPerHour="107.03" departLane="best" departPos="random" departSpeed="0" from="222682222#1" to="193253427#0"/>
  <flow id="motorcycle_222682222#1_198876043#0_00095bd5" type="motorcycle" begin="0" end="3600" vehsPerHour="94.87" departLane="best" departPos="random" departSpeed="0" from="222682222#1" to="198876043#0"/>
  <flow id="motorcycle_222682222#1_28231434_00095bd5" type="motorcycle" begin="0" end="3600" vehsPerHour="83.94" departLane="best" departPos="random" departSpeed="0" from="222682222#1" to="28231434"/>
  <flow id="motorcycle_222682222#1_23241821#0_00095bd5" type="motorcycle" begin="0" end="3600" vehsPerHour="73.18" departLane="best" departPos="random" departSpeed="0" from="222682222#1" to="23241821#0"/>
  <flow id="motorcycle_222682222#1_198876042#0_00095bd5" type="motorcycle" begin="0" end="3600" vehsPerHour="62.66" departLane="best" departPos="random" departSpeed="0" from="222682222#1" to="198876042#0"/>
  <flow id="car_193253433#2_198876043#0_00095bd5" type="car" begin="0" end="3600" vehsPerHour="24.89" departLane="best" departPos="random" departSpeed="0" from="193253433#2" to="198876043#0"/>
  <flow id="car_193253433#2_28231434_00095bd5" type="car" begin="0" end="3600" vehsPerHour="19.90" departLane="best" departPos="random" departSpeed="0" from="193253433#2" to="28231434"/>
  <flow id="car_193253433#2_23241821#0_00095bd5" type="car" begin="0" end="3600" vehsPerHour="21.36" departLane="best" departPos="random" departSpeed="0" from="193253433#2" to="23241821#0"/>
  <flow id="car_193253433#2_198876042#0_00095bd5" type="car" begin="0" end="3600" vehsPerHour="16.15" departLane="best" departPos="random" departSpeed="0" from="193253433#2" to="198876042#0"/>
  <flow id="car_193253433#2_193253427#0_00095bd5" type="car" begin="0" end="3600" vehsPerHour="14.49" departLane="best" departPos="random" departSpeed="0" from="193253433#2" to="193253427#0"/>
  <flow id="motorcycle_193253433#2_198876043#0_00095bd5" type="motorcycle" begin="0" end="3600" vehsPerHour="73.83" departLane="best" departPos="random" departSpeed="0" from="193253433#2" to="198876043#0"/>
  <flow id="motorcycle_193253433#2_28231434_00095bd5" type="motorcycle" begin="0" end="3600" vehsPerHour="65.31" departLane="best" departPos="random" departSpeed="0" from="193253433#2" to="28231434"/>
  <flow id="motorcycle_193253433#2_23241821#0_00095bd5" type="motorcycle" begin="0" end="3600" vehsPerHour="55.45" departLane="best" departPos="random" departSpeed="0" from="193253433#2" to="23241821#0"/>
  <flow id="motorcycle_193253433#2_198876042#0_00095bd5" type="motorcycle" begin="0" end="3600" vehsPerHour="49.53" departLane="best" departPos="random" departSpeed="0" from="193253433#2" to="198876042#0"/>
  <flow id="motorcycle_193253433#2_193253427#0_00095bd5" type="motorcycle" begin="0" end="3600" vehsPerHour="43.10" departLane="best" departPos="random" departSpeed="0" from="193253433#2" to="193253427#0"/>
  <flow id="car_198876045#1_28231434_00095bd5" type="car" begin="0" end="3600" vehsPerHour="19.75" departLane="best" departPos="random" departSpeed="0" from="198876045#1" to="28231434"/>
  <flow id="car_198876045#1_23241821#0_00095bd5" type="car" begin="0" end="3600" vehsPerHour="19.10" departLane="best" departPos="random" departSpeed="0" from="198876045#1" to="23241821#0"/>
  <flow id="car_198876045#1_198876042#0_00095bd5" type="car" begin="0" end="3600" vehsPerHour="16.07" departLane="best" departPos="random" departSpeed="0" from="198876045#1" to="198876042#0"/>
  <flow id="car_198876045#1_193253427#0_00095bd5" type="car" begin="0" end="3600" vehsPerHour="13.91" departLane="best" departPos="random" departSpeed="0" from="198876045#1" to="193253427#0"/>
  <flow id="car_198876045#1_198876043#2_00095bd5" type="car" begin="0" end="3600" vehsPerHour="12.93" departLane="best" departPos="random" departSpeed="0" from="198876045#1" to="198876043#2"/>
  <flow id="motorcycle_198876045#1_28231434_00095bd5" type="motorcycle" begin="0" end="3600" vehsPerHour="62.00" departLane="best" departPos="random" departSpeed="0" from="198876045#1" to="28231434"/>
  <flow id="motorcycle_198876045#1_23241821#0_00095bd5" type="motorcycle" begin="0" end="3600" vehsPerHour="55.59" departLane="best" departPos="random" departSpeed="0" from="198876045#1" to="23241821#0"/>
  <flow id="motorcycle_198876045#1_198876042#0_00095bd5" type="motorcycle" begin="0" end="3600" vehsPerHour="50.58" departLane="best" departPos="random" departSpeed="0" from="198876045#1" to="198876042#0"/>
  <flow id="motorcycle_198876045#1_193253427#0_00095bd5" type="motorcycle" begin="0" end="3600" vehsPerHour="44.35" departLane="best" departPos="random" departSpeed="0" from="198876045#1" to="193253427#0"/>
  <flow id="motorcycle_198876045#1_198876043#2_00095bd5" type="motorcycle" begin="0" end="3600" vehsPerHour="43.42" departLane="best" departPos="random" departSpeed="0" from="198876045#1" to="198876043#2"/>
  <flow id="car_-28231434_23241821#0_00095bd5" type="car" begin="0" end="3600" vehsPerHour="14.81" departLane="best" departPos="random" departSpeed="0" from="-28231434" to="23241821#0"/>
  <flow id="car_-28231434_198876042#0_00095bd5" type="car" begin="0" end="3600" vehsPerHour="12.55" departLane="best" departPos="random" departSpeed="0" from="-28231434" to="198876042#0"/>
  <flow id="car_-28231434_193253427#0_00095bd5" type="car" begin="0" end="3600" vehsPerHour="10.85" departLane="best" departPos="random" departSpeed="0" from="-28231434" to="193253427#0"/>
  <flow id="car_-28231434_198876043#2_00095bd5" type="car" begin="0" end="3600" vehsPerHour="10.81" departLane="best" departPos="random" departSpeed="0" from="-28231434" to="198876043#2"/>
  <flow id="car_-28231434_28231434_00095bd5" type="car" begin="0" end="3600" vehsPerHour="8.50" departLane="best" departPos="random" departSpeed="0" from="-28231434" to="28231434"/>
  <flow id="motorcycle_-28231434_23241821#0_00095bd5" type="motorcycle" begin="0" end="3600" vehsPerHour="41.04" departLane="best" departPos="random" departSpeed="0" from="-28231434" to="23241821#0"/>
  <flow id="motorcycle_-28231434_198876042#0_00095bd5" type="motorcycle" begin="0" end="3600" vehsPerHour="38.79" departLane="best" departPos="random" departSpeed="0" from="-28231434" to="198876042#0"/>
  <flow id="motorcycle_-28231434_193253427#0_00095bd5" type="motorcycle" begin="0" end="3600" vehsPerHour="33.30" departLane="best" departPos="random" departSpeed="0" from="-28231434" to="193253427#0"/>
  <flow id="motorcycle_-28231434_198876043#2_00095bd5" type="motorcycle" begin="0" end="3600" vehsPerHour="29.40" departLane="best" departPos="random" departSpeed="0" from="-28231434" to="198876043#2"/>
  <flow id="motorcycle_-28231434_28231434_00095bd5" type="motorcycle" begin="0" end="3600" vehsPerHour="25.46" departLane="best" departPos="random" departSpeed="0" from="-28231434" to="28231434"/>
  <flow id="car_-55029244#0_198876042#0_00095bd5" type="car" begin="0" end="3600" vehsPerHour="16.83" departLane="best" departPos="random" departSpeed="0" from="-55029244#0" to="198876042#0"/>
  <flow id="car_-55029244#0_193253427#0_00095bd5" type="car" begin="0" end="3600" vehsPerHour="15.19" departLane="best" departPos="random" departSpeed="0" from="-55029244#0" to="193253427#0"/>
  <flow id="car_-55029244#0_198876043#2_00095bd5" type="car" begin="0" end="3600" vehsPerHour="11.85" departLane="best" departPos="random" departSpeed="0" from="-55029244#0" to="198876043#2"/>
  <flow id="car_-55029244#0_28231434_00095bd5" type="car" begin="0" end="3600" vehsPerHour="10.25" departLane="best" departPos="random" departSpeed="0" from="-55029244#0" to="28231434"/>
  <flow id="car_-55029244#0_23241821#0_00095bd5" type="car" begin="0" end="3600" vehsPerHour="8.43" departLane="best" departPos="random" departSpeed="0" from="-55029244#0" to="23241821#0"/>
  <flow id="motorcycle_-55029244#0_198876042#0_00095bd5" type="motorcycle" begin="0" end="3600" vehsPerHour="48.54" departLane="best" departPos="random" departSpeed="0" from="-55029244#0" to="198876042#0"/>
  <flow id="motorcycle_-55029244#0_193253427#0_00095bd5" type="motorcycle" begin="0" end="3600" vehsPerHour="42.34" departLane="best" departPos="random" departSpeed="0" from="-55029244#0" to="193253427#0"/>
  <flow id="motorcycle_-55029244#0_198876043#2_00095bd5" type="motorcycle" begin="0" end="3600" vehsPerHour="39.07" departLane="best" departPos="random" departSpeed="0" from="-55029244#0" to="198876043#2"/>
  <flow id="motorcycle_-55029244#0_28231434_00095bd5" type="motorcycle" begin="0" end="3600" vehsPerHour="34.72" departLane="best" departPos="random" departSpeed="0" from="-55029244#0" to="28231434"/>
  <flow id="motorcycle_-55029244#0_23241821#0_00095bd5" type="motorcycle" begin="0" end="3600" vehsPerHour="28.03" departLane="best" departPos="random" departSpeed="0" from="-55029244#0" to="23241821#0"/>
  <flow id="car_34241530#0_198876042#0_00095bd5" type="car" begin="0" end="3600" vehsPerHour="17.21" departLane="best" departPos="random" departSpeed="0" from="34241530#0" to="198876042#0"/>
  <flow id="car_34241530#0_193253427#0_00095bd5" type="car" begin="0" end="3600" vehsPerHour="14.10" departLane="best" departPos="random" departSpeed="0" from="34241530#0" to="193253427#0"/>
  <flow id="car_34241530#0_198876043#2_00095bd5" type="car" begin="0" end="3600" vehsPerHour="11.94" departLane="best" departPos="random" departSpeed="0" from="34241530#0" to="198876043#2"/>
  <flow id="car_34241530#0_28231434_00095bd5" type="car" begin="0" end="3600" vehsPerHour="10.51" departLane="best" departPos="random" departSpeed="0" from="34241530#0" to="28231434"/>
  <flow id="car_34241530#0_23241821#0_00095bd5" type="car" begin="0" end="3600" vehsPerHour="8.53" departLane="best" departPos="random" departSpeed="0" from="34241530#0" to="23241821#0"/>
  <flow id="motorcycle_34241530#0_198876042#0_00095bd5" type="motorcycle" begin="0" end="3600" vehsPerHour="48.98" departLane="best" departPos="random" departSpeed="0" from="34241530#0" to="198876042#0"/>
  <flow id="motorcycle_34241530#0_193253427#0_00095bd5" type="motorcycle" begin="0" end="3600" vehsPerHour="42.61" departLane="best" departPos="random" departSpeed="0" from="34241530#0" to="193253427#0"/>
  <flow id="motorcycle_34241530#0_198876043#2_00095bd5" type="motorcycle" begin="0" end="3600" vehsPerHour="37.51" departLane="best" departPos="random" departSpeed="0" from="34241530#0" to="198876043#2"/>
  <flow id="motorcycle_34241530#0_28231434_00095bd5" type="motorcycle" begin="0" end="3600" vehsPerHour="34.35" departLane="best" departPos="random" departSpeed="0" from="34241530#0" to="28231434"/>
  <flow id="motorcycle_34241530#0_23241821#0_00095bd5" type="motorcycle" begin="0" end="3600" vehsPerHour="30.34" departLane="best" departPos="random" departSpeed="0" from="34241530#0" to="23241821#0"/>
  <flow id="truck_34241530#0_198876042#0_00095bd5" type="truck" begin="0" end="3600" vehsPerHour="7.59" departLane="best" departPos="random" departSpeed="0" from="34241530#0" to="198876042#0"/>
</routes>
