<routes>
<vType id="car" vClass="passenger" accel="2.6" decel="4.5" sigma="0.5" length="5.0" maxSpeed="13.9"/>
<vType id="motorcycle" vClass="motorcycle" accel="3.0" decel="5.0" sigma="0.5" length="2.0" maxSpeed="14.0"/>
<vType id="truck" vClass="truck" accel="1.2" decel="3.5" sigma="0.5" length="12.0" maxSpeed="10.0"/>

  <flow id="car_222682222#1_193253427#0_0001bbe0" type="car" begin="0" end="3600" vehsPerHour="37.73" departLane="best" departPos="random" departSpeed="0" from="222682222#1" to="193253427#0"/>
  <flow id="car_222682222#1_198876043#0_0001bbe0" type="car" begin="0" end="3600" vehsPerHour="31.31" departLane="best" departPos="random" departSpeed="0" from="222682222#1" to="198876043#0"/>
  <flow id="car_222682222#1_28231434_0001bbe0" type="car" begin="0" end="3600" vehsPerHour="31.30" departLane="best" departPos="random" departSpeed="0" from="222682222#1" to="28231434"/>
  <flow id="car_222682222#1_23241821#0_0001bbe0" type="car" begin="0" end="3600" vehsPerHour="25.37" departLane="best" departPos="random" departSpeed="0" from="222682222#1" to="23241821#0"/>
  <flow id="car_222682222#1_198876042#0_0001bbe0" type="car" begin="0" end="3600" vehsPerHour="20.33" departLane="best" departPos="random" departSpeed="0" from="222682222#1" to="198876042#0"/>
  <flow id="motorcycle_222682222#1_193253427#0_0001bbe0" type="motorcycle" begin="0" end="3600" vehsPerHour="107.48" departLane="best" departPos="random" departSpeed="0" from="222682222#1" to="193253427#0"/>
  <flow id="motorcycle_222682222#1_198876043#0_0001bbe0" type="motorcycle" begin="0" end="3600" vehsPerHour="95.07" departLane="best" departPos="random" departSpeed="0" from="222682222#1" to="198876043#0"/>
  <flow id="motorcycle_222682222#1_28231434_0001bbe0" type="motorcycle" begin="0" end="3600" vehsPerHour="85.54" departLane="best" departPos="random" departSpeed="0" from="222682222#1" to="28231434"/>
  <flow id="motorcycle_222682222#1_23241821#0_0001bbe0" type="motorcycle" begin="0" end="3600" vehsPerHour="67.97" departLane="best" departPos="random" departSpeed="0" from="222682222#1" to="23241821#0"/>
  <flow id="motorcycle_222682222#1_198876042#0_0001bbe0" type="motorcycle" begin="0" end="3600" vehsPerHour="65.28" departLane="best" departPos="random" departSpeed="0" from="222682222#1" to="198876042#0"/>
  <flow id="car_193253433#2_198876043#0_0001bbe0" type="car" begin="0" end="3600" vehsPerHour="25.37" departLane="best" departPos="random" departSpeed="0" from="193253433#2" to="198876043#0"/>
  <flow id="car_193253433#2_28231434_0001bbe0" type="car" begin="0" end="3600" vehsPerHour="20.78" departLane="best" departPos="random" departSpeed="0" from="193253433#2" to="28231434"/>
  <flow id="car_193253433#2_23241821#0_0001bbe0" type="car" begin="0" end="3600" vehsPerHour="20.37" departLane="best" departPos="random" departSpeed="0" from="193253433#2" to="23241821#0"/>
  <flow id="car_193253433#2_198876042#0_0001bbe0" type="car" begin="0" end="3600" vehsPerHour="15.79" departLane="best" departPos="random" departSpeed="0" from="193253433#2" to="198876042#0"/>
  <flow id="car_193253433#2_193253427#0_0001bbe0" type="car" begin="0" end="3600" vehsPerHour="15.20" departLane="best" departPos="random" departSpeed="0" from="193253433#2" to="193253427#0"/>
  <flow id="motorcycle_193253433#2_198876043#0_0001bbe0" type="motorcycle" begin="0" end="3600" vehsPerHour="71.62" departLane="best" departPos="random" departSpeed="0" from="193253433#2" to="198876043#0"/>
  <flow id="motorcycle_193253433#2_28231434_0001bbe0" type="motorcycle" begin="0" end="3600" vehsPerHour="61.61" departLane="best" departPos="random" departSpeed="0" from="193253433#2" to="28231434"/>
  <flow id="motorcycle_193253433#2_23241821#0_0001bbe0" type="motorcycle" begin="0" end="3600" vehsPerHour="60.10" departLane="best" departPos="random" departSpeed="0" from="193253433#2" to="23241821#0"/>
  <flow id="motorcycle_193253433#2_198876042#0_0001bbe0" type="motorcycle" begin="0" end="3600" vehsPerHour="50.50" departLane="best" departPos="random" departSpeed="0" from="193253433#2" to="198876042#0"/>
  <flow id="motorcycle_193253433#2_193253427#0_0001bbe0" type="motorcycle" begin="0" end="3600" vehsPerHour="41.32" departLane="best" departPos="random" departSpeed="0" from="193253433#2" to="193253427#0"/>
  <flow id="car_198876045#1_28231434_0001bbe0" type="car" begin="0" end="3600" vehsPerHour="20.61" departLane="best" departPos="random" departSpeed="0" from="198876045#1" to="28231434"/>
  <flow id="car_198876045#1_23241821#0_0001bbe0" type="car" begin="0" end="3600" vehsPerHour="18.14" departLane="best" departPos="random" departSpeed="0" from="198876045#1" to="23241821#0"/>
  <flow id="car_198876045#1_198876042#0_0001bbe0" type="car" begin="0" end="3600" vehsPerHour="17.28" departLane="best" departPos="random" departSpeed="0" from="198876045#1" to="198876042#0"/>
  <flow id="car_198876045#1_193253427#0_0001bbe0" type="car" begin="0" end="3600" vehsPerHour="14.25" departLane="best" departPos="random" departSpeed="0" from="198876045#1" to="193253427#0"/>
  <flow id="car_198876045#1_198876043#2_0001bbe0" type="car" begin="0" end="3600" vehsPerHour="12.30" departLane="best" departPos="random" departSpeed="0" from="198876045#1" to="198876043#2"/>
  <flow id="motorcycle_198876045#1_28231434_0001bbe0" type="motorcycle" begin="0" end="3600" vehsPerHour="61.33" departLane="best" departPos="random" departSpeed="0" from="198876045#1" to="28231434"/>
  <flow id="motorcycle_198876045#1_23241821#0_0001bbe0" type="motorcycle" begin="0" end="3600" vehsPerHour="55.31" departLane="best" departPos="random" departSpeed="0" from="198876045#1" to="23241821#0"/>
  <flow id="motorcycle_198876045#1_198876042#0_0001bbe0" type="motorcycle" begin="0" end="3600" vehsPerHour="49.75" departLane="best" departPos="random" departSpeed="0" from="198876045#1" to="198876042#0"/>
  <flow id="motorcycle_198876045#1_193253427#0_0001bbe0" type="motorcycle" begin="0" end="3600" vehsPerHour="45.68" departLane="best" departPos="random" departSpeed="0" from="198876045#1" to="193253427#0"/>
  <flow id="motorcycle_198876045#1_198876043#2_0001bbe0" type="motorcycle" begin="0" end="3600" vehsPerHour="39.96" departLane="best" departPos="random" departSpeed="0" from="198876045#1" to="198876043#2"/>
  <flow id="car_-28231434_23241821#0_0001bbe0" type="car" begin="0" end="3600" vehsPerHour="14.54" departLane="best" departPos="random" departSpeed="0" from="-28231434" to="23241821#0"/>
  <flow id="car_-28231434_198876042#0_0001bbe0" type="car" begin="0" end="3600" vehsPerHour="12.71" departLane="best" departPos="random" departSpeed="0" from="-28231434" to="198876042#0"/>
  <flow id="car_-28231434_193253427#0_0001bbe0" type="car" begin="0" end="3600" vehsPerHour="10.37" departLane="best" departPos="random" departSpeed="0" from="-28231434" to="193253427#0"/>
  <flow id="car_-28231434_198876043#2_0001bbe0" type="car" begin="0" end="3600" vehsPerHour="10.16" departLane="best" departPos="random" departSpeed="0" from="-28231434" to="198876043#2"/>
  <flow id="car_-28231434_28231434_0001bbe0" type="car" begin="0" end="3600" vehsPerHour="8.33" departLane="best" departPos="random" departSpeed="0" from="-28231434" to="28231434"/>
  <flow id="motorcycle_-28231434_23241821#0_0001bbe0" type="motorcycle" begin="0" end="3600" vehsPerHour="39.76" departLane="best" departPos="random" departSpeed="0" from="-28231434" to="23241821#0"/>
  <flow id="motorcycle_-28231434_198876042#0_0001bbe0" type="motorcycle" begin="0" end="3600" vehsPerHour="39.13" departLane="best" departPos="random" departSpeed="0" from="-28231434" to="198876042#0"/>
  <flow id="motorcycle_-28231434_193253427#0_0001bbe0" type="motorcycle" begin="0" end="3600" vehsPerHour="33.70" departLane="best" departPos="random" departSpeed="0" from="-28231434" to="193253427#0"/>
  <flow id="motorcycle_-28231434_198876043#2_0001bbe0" type="motorcycle" begin="0" end="3600" vehsPerHour="28.83" departLane="best" departPos="random" departSpeed="0" from="-28231434" to="198876043#2"/>
  <flow id="motorcycle_-28231434_28231434_0001bbe0" type="motorcycle" begin="0" end="3600" vehsPerHour="26.12" departLane="best" departPos="random" departSpeed="0" from="-28231434" to="28231434"/>
  <flow id="car_-55029244#0_198876042#0_0001bbe0" type="car" begin="0" end="3600" vehsPerHour="17.30" departLane="best" departPos="random" departSpeed="0" from="-55029244#0" to="198876042#0"/>
  <flow id="car_-55029244#0_193253427#0_0001bbe0" type="car" begin="0" end="3600" vehsPerHour="15.15" departLane="best" departPos="random" departSpeed="0" from="-55029244#0" to="193253427#0"/>
  <flow id="car_-55029244#0_198876043#2_0001bbe0" type="car" begin="0" end="3600" vehsPerHour="12.22" departLane="best" departPos="random" departSpeed="0" from="-55029244#0" to="198876043#2"/>
  <flow id="car_-55029244#0_28231434_0001bbe0" type="car" begin="0" end="3600" vehsPerHour="10.05" departLane="best" departPos="random" departSpeed="0" from="-55029244#0" to="28231434"/>
  <flow id="car_-55029244#0_23241821#0_0001bbe0" type="car" begin="0" end="3600" vehsPerHour="8.36" departLane="best" departPos="random" departSpeed="0" from="-55029244#0" to="23241821#0"/>
  <flow id="motorcycle_-55029244#0_198876042#0_0001bbe0" type="motorcycle" begin="0" end="3600" vehsPerHour="50.58" departLane="best" departPos="random" departSpeed="0" from="-55029244#0" to="198876042#0"/>
  <flow id="motorcycle_-55029244#0_193253427#0_0001bbe0" type="motorcycle" begin="0" end="3600" vehsPerHour="41.92" departLane="best" departPos="random" departSpeed="0" from="-55029244#0" to="193253427#0"/>
  <flow id="motorcycle_-55029244#0_198876043#2_0001bbe0" type="motorcycle" begin="0" end="3600" vehsPerHour="37.76" departLane="best" departPos="random" departSpeed="0" from="-55029244#0" to="198876043#2"/>
  <flow id="motorcycle_-55029244#0_28231434_0001bbe0" type="motorcycle" begin="0" end="3600" vehsPerHour="34.66" departLane="best" departPos="random" departSpeed="0" from="-55029244#0" to="28231434"/>
  <flow id="motorcycle_-55029244#0_23241821#0_0001bbe0" type="motorcycle" begin="0" end="3600" vehsPerHour="28.77" departLane="best" departPos="random" departSpeed="0" from="-55029244#0" to="23241821#0"/>
  <flow id="car_34241530#0_198876042#0_0001bbe0" type="car" begin="0" end="3600" vehsPerHour="16.46" departLane="best" departPos="random" departSpeed="0" from="34241530#0" to="198876042#0"/>
  <flow id="car_34241530#0_193253427#0_0001bbe0" type="car" begin="0" end="3600" vehsPerHour="14.14" departLane="best" departPos="random" departSpeed="0" from="34241530#0" to="193253427#0"/>
  <flow id="car_34241530#0_198876043#2_0001bbe0" type="car" begin="0" end="3600" vehsPerHour="12.93" departLane="best" departPos="random" departSpeed="0" from="34241530#0" to="198876043#2"/>
  <flow id="car_34241530#0_28231434_0001bbe0" type="car" begin="0" end="3600" vehsPerHour="10.03" departLane="best" departPos="random" departSpeed="0" from="34241530#0" to="28231434"/>
  <flow id="car_34241530#0_23241821#0_0001bbe0" type="car" begin="0" end="3600" vehsPerHour="8.11" departLane="best" departPos="random" departSpeed="0" from="34241530#0" to="23241821#0"/>
  <flow id="motorcycle_34241530#0_198876042#0_0001bbe0" type="motorcycle" begin="0" end="3600" vehsPerHour="50.17" departLane="best" departPos="random" departSpeed="0" from="34241530#0" to="198876042#0"/>
  <flow id="motorcycle_34241530#0_193253427#0_0001bbe0" type="motorcycle" begin="0" end="3600" vehsPerHour="41.41" departLane="best" departPos="random" departSpeed="0" from="34241530#0" to="193253427#0"/>
  <flow id="motorcycle_34241530#0_198876043#2_0001bbe0" type="motorcycle" begin="0" end="3600" vehsPerHour="37.61" departLane="best" departPos="random" departSpeed="0" from="34241530#0" to="198876043#2"/>
  <flow id="motorcycle_34241530#0_28231434_0001bbe0" type="motorcycle" begin="0" end="3600" vehsPerHour="34.72" departLane="best" departPos="random" departSpeed="0" from="34241530#0" to="28231434"/>
  <flow id="motorcycle_34241530#0_23241821#0_0001bbe0" type="motorcycle" begin="0" end="3600" vehsPerHour="28.32" departLane="best" departPos="random" departSpeed="0" from="34241530#0" to="23241821#0"/>
  <flow id="truck_34241530#0_198876042#0_0001bbe0" type="truck" begin="0" end="3600" vehsPerHour="7.54" departLane="best" departPos="random" departSpeed="0" from="34241530#0" to="198876042#0"/>
</routes>
