<routes>
<vType id="car" vClass="passenger" accel="2.6" decel="4.5" sigma="0.5" length="5.0" maxSpeed="13.9"/>
<vType id="motorcycle" vClass="motorcycle" accel="3.0" decel="5.0" sigma="0.5" length="2.0" maxSpeed="14.0"/>
<vType id="truck" vClass="truck" accel="1.2" decel="3.5" sigma="0.5" length="12.0" maxSpeed="10.0"/>

  <flow id="car_222682222#1_193253427#0_000564fb" type="car" begin="0" end="3600" vehsPerHour="36.63" departLane="best" departPos="random" departSpeed="0" from="222682222#1" to="193253427#0"/>
  <flow id="car_222682222#1_198876043#0_000564fb" type="car" begin="0" end="3600" vehsPerHour="31.39" departLane="best" departPos="random" departSpeed="0" from="222682222#1" to="198876043#0"/>
  <flow id="car_222682222#1_28231434_000564fb" type="car" begin="0" end="3600" vehsPerHour="31.35" departLane="best" departPos="random" departSpeed="0" from="222682222#1" to="28231434"/>
  <flow id="car_222682222#1_23241821#0_000564fb" type="car" begin="0" end="3600" vehsPerHour="23.69" departLane="best" departPos="random" departSpeed="0" from="222682222#1" to="23241821#0"/>
  <flow id="car_222682222#1_198876042#0_000564fb" type="car" begin="0" end="3600" vehsPerHour="21.27" departLane="best" departPos="random" departSpeed="0" from="222682222#1" to="198876042#0"/>
  <flow id="motorcycle_222682222#1_193253427#0_000564fb" type="motorcycle" begin="0" end="3600" vehsPerHour="106.53" departLane="best" departPos="random" departSpeed="0" from="222682222#1" to="193253427#0"/>
  <flow id="motorcycle_222682222#1_198876043#0_000564fb" type="motorcycle" begin="0" end="3600" vehsPerHour="96.14" departLane="best" departPos="random" departSpeed="0" from="222682222#1" to="198876043#0"/>
  <flow id="motorcycle_222682222#1_28231434_000564fb" type="motorcycle" begin="0" end="3600" vehsPerHour="85.41" departLane="best" departPos="random" departSpeed="0" from="222682222#1" to="28231434"/>
  <flow id="motorcycle_222682222#1_23241821#0_000564fb" type="motorcycle" begin="0" end="3600" vehsPerHour="67.09" departLane="best" departPos="random" departSpeed="0" from="222682222#1" to="23241821#0"/>
  <flow id="motorcycle_222682222#1_198876042#0_000564fb" type="motorcycle" begin="0" end="3600" vehsPerHour="64.04" departLane="best" departPos="random" departSpeed="0" from="222682222#1" to="198876042#0"/>
  <flow id="car_193253433#2_198876043#0_000564fb" type="car" begin="0" end="3600" vehsPerHour="26.13" departLane="best" departPos="random" departSpeed="0" from="193253433#2" to="198876043#0"/>
  <flow id="car_193253433#2_28231434_000564fb" type="car" begin="0" end="3600" vehsPerHour="20.36" departLane="best" departPos="random" departSpeed="0" from="193253433#2" to="28231434"/>
  <flow id="car_193253433#2_23241821#0_000564fb" type="car" begin="0" end="3600" vehsPerHour="20.65" departLane="best" departPos="random" departSpeed="0" from="193253433#2" to="23241821#0"/>
  <flow id="car_193253433#2_198876042#0_000564fb" type="car" begin="0" end="3600" vehsPerHour="16.26" departLane="best" departPos="random" departSpeed="0" from="193253433#2" to="198876042#0"/>
  <flow id="car_193253433#2_193253427#0_000564fb" type="car" begin="0" end="3600" vehsPerHour="14.35" departLane="best" departPos="random" departSpeed="0" from="193253433#2" to="193253427#0"/>
  <flow id="motorcycle_193253433#2_198876043#0_000564fb" type="motorcycle" begin="0" end="3600" vehsPerHour="73.54" departLane="best" departPos="random" departSpeed="0" from="193253433#2" to="198876043#0"/>
  <flow id="motorcycle_193253433#2_28231434_000564fb" type="motorcycle" begin="0" end="3600" vehsPerHour="59.33" departLane="best" departPos="random" departSpeed="0" from="193253433#2" to="28231434"/>
  <flow id="motorcycle_193253433#2_23241821#0_000564fb" type="motorcycle" begin="0" end="3600" vehsPerHour="59.59" departLane="best" departPos="random" departSpeed="0" from="193253433#2" to="23241821#0"/>
  <flow id="motorcycle_193253433#2_198876042#0_000564fb" type="motorcycle" begin="0" end="3600" vehsPerHour="49.95" departLane="best" departPos="random" departSpeed="0" from="193253433#2" to="198876042#0"/>
  <flow id="motorcycle_193253433#2_193253427#0_000564fb" type="motorcycle" begin="0" end="3600" vehsPerHour="43.31" departLane="best" departPos="random" departSpeed="0" from="193253433#2" to="193253427#0"/>
  <flow id="car_198876045#1_28231434_000564fb" type="car" begin="0" end="3600" vehsPerHour="20.26" departLane="best" departPos="random" departSpeed="0" from="198876045#1" to="28231434"/>
  <flow id="car_198876045#1_23241821#0_000564fb" type="car" begin="0" end="3600" vehsPerHour="18.93" departLane="best" departPos="random" departSpeed="0" from="198876045#1" to="23241821#0"/>
  <flow id="car_198876045#1_198876042#0_000564fb" type="car" begin="0" end="3600" vehsPerHour="16.16" departLane="best" departPos="random" departSpeed="0" from="198876045#1" to="198876042#0"/>
  <flow id="car_198876045#1_193253427#0_000564fb" type="car" begin="0" end="3600" vehsPerHour="14.54" departLane="best" departPos="random" departSpeed="0" from="198876045#1" to="193253427#0"/>
  <flow id="car_198876045#1_198876043#2_000564fb" type="car" begin="0" end="3600" vehsPerHour="12.08" departLane="best" departPos="random" departSpeed="0" from="198876045#1" to="198876043#2"/>
  <flow id="motorcycle_198876045#1_28231434_000564fb" type="motorcycle" begin="0" end="3600" vehsPerHour="64.51" departLane="best" departPos="random" departSpeed="0" from="198876045#1" to="28231434"/>
  <flow id="motorcycle_198876045#1_23241821#0_000564fb" type="motorcycle" begin="0" end="3600" vehsPerHour="56.48" departLane="best" departPos="random" departSpeed="0" from="198876045#1" to="23241821#0"/>
  <flow id="motorcycle_198876045#1_198876042#0_000564fb" type="motorcycle" begin="0" end="3600" vehsPerHour="47.90" departLane="best" departPos="random" departSpeed="0" from="198876045#1" to="198876042#0"/>
  <flow id="motorcycle_198876045#1_193253427#0_000564fb" type="motorcycle" begin="0" end="3600" vehsPerHour="46.80" departLane="best" departPos="random" departSpeed="0" from="198876045#1" to="193253427#0"/>
  <flow id="motorcycle_198876045#1_198876043#2_000564fb" type="motorcycle" begin="0" end="3600" vehsPerHour="42.89" departLane="best" departPos="random" departSpeed="0" from="198876045#1" to="198876043#2"/>
  <flow id="car_-28231434_23241821#0_000564fb" type="car" begin="0" end="3600" vehsPerHour="14.08" departLane="best" departPos="random" departSpeed="0" from="-28231434" to="23241821#0"/>
  <flow id="car_-28231434_198876042#0_000564fb" type="car" begin="0" end="3600" vehsPerHour="12.36" departLane="best" departPos="random" departSpeed="0" from="-28231434" to="198876042#0"/>
  <flow id="car_-28231434_193253427#0_000564fb" type="car" begin="0" end="3600" vehsPerHour="10.88" departLane="best" departPos="random" departSpeed="0" from="-28231434" to="193253427#0"/>
  <flow id="car_-28231434_198876043#2_000564fb" type="car" begin="0" end="3600" vehsPerHour="10.44" departLane="best" departPos="random" departSpeed="0" from="-28231434" to="198876043#2"/>
  <flow id="car_-28231434_28231434_000564fb" type="car" begin="0" end="3600" vehsPerHour="8.50" departLane="best" departPos="random" departSpeed="0" from="-28231434" to="28231434"/>
  <flow id="motorcycle_-28231434_23241821#0_000564fb" type="motorcycle" begin="0" end="3600" vehsPerHour="39.46" departLane="best" departPos="random" departSpeed="0" from="-28231434" to="23241821#0"/>
  <flow id="motorcycle_-28231434_198876042#0_000564fb" type="motorcycle" begin="0" end="3600" vehsPerHour="37.54" departLane="best" departPos="random" departSpeed="0" from="-28231434" to="198876042#0"/>
  <flow id="motorcycle_-28231434_193253427#0_000564fb" type="motorcycle" begin="0" end="3600" vehsPerHour="34.41" departLane="best" departPos="random" departSpeed="0" from="-28231434" to="193253427#0"/>
  <flow id="motorcycle_-28231434_198876043#2_000564fb" type="motorcycle" begin="0" end="3600" vehsPerHour="28.66" departLane="best" departPos="random" departSpeed="0" from="-28231434" to="198876043#2"/>
  <flow id="motorcycle_-28231434_28231434_000564fb" type="motorcycle" begin="0" end="3600" vehsPerHour="24.30" departLane="best" departPos="random" departSpeed="0" from="-28231434" to="28231434"/>
  <flow id="car_-55029244#0_198876042#0_000564fb" type="car" begin="0" end="3600" vehsPerHour="16.67" departLane="best" departPos="random" departSpeed="0" from="-55029244#0" to="198876042#0"/>
  <flow id="car_-55029244#0_193253427#0_000564fb" type="car" begin="0" end="3600" vehsPerHour="14.31" departLane="best" departPos="random" departSpeed="0" from="-55029244#0" to="193253427#0"/>
  <flow id="car_-55029244#0_198876043#2_000564fb" type="car" begin="0" end="3600" vehsPerHour="12.70" departLane="best" departPos="random" departSpeed="0" from="-55029244#0" to="198876043#2"/>
  <flow id="car_-55029244#0_28231434_000564fb" type="car" begin="0" end="3600" vehsPerHour="10.24" departLane="best" departPos="random" departSpeed="0" from="-55029244#0" to="28231434"/>
  <flow id="car_-55029244#0_23241821#0_000564fb" type="car" begin="0" end="3600" vehsPerHour="8.05" departLane="best" departPos="random" departSpeed="0" from="-55029244#0" to="23241821#0"/>
  <flow id="motorcycle_-55029244#0_198876042#0_000564fb" type="motorcycle" begin="0" end="3600" vehsPerHour="51.62" departLane="best" departPos="random" departSpeed="0" from="-55029244#0" to="198876042#0"/>
  <flow id="motorcycle_-55029244#0_193253427#0_000564fb" type="motorcycle" begin="0" end="3600" vehsPerHour="43.19" departLane="best" departPos="random" departSpeed="0" from="-55029244#0" to="193253427#0"/>
  <flow id="motorcycle_-55029244#0_198876043#2_000564fb" type="motorcycle" begin="0" end="3600" vehsPerHour="36.31" departLane="best" departPos="random" departSpeed="0" from="-55029244#0" to="198876043#2"/>
  <flow id="motorcycle_-55029244#0_28231434_000564fb" type="motorcycle" begin="0" end="3600" vehsPerHour="33.07" departLane="best" departPos="random" departSpeed="0" from="-55029244#0" to="28231434"/>
  <flow id="motorcycle_-55029244#0_23241821#0_000564fb" type="motorcycle" begin="0" end="3600" vehsPerHour="28.26" departLane="best" departPos="random" departSpeed="0" from="-55029244#0" to="23241821#0"/>
  <flow id="car_34241530#0_198876042#0_000564fb" type="car" begin="0" end="3600" vehsPerHour="16.80" departLane="best" departPos="random" departSpeed="0" from="34241530#0" to="198876042#0"/>
  <flow id="car_34241530#0_193253427#0_000564fb" type="car" begin="0" end="3600" vehsPerHour="14.74" departLane="best" departPos="random" departSpeed="0" from="34241530#0" to="193253427#0"/>
  <flow id="car_34241530#0_198876043#2_000564fb" type="car" begin="0" end="3600" vehsPerHour="12.47" departLane="best" departPos="random" departSpeed="0" from="34241530#0" to="198876043#2"/>
  <flow id="car_34241530#0_28231434_000564fb" type="car" begin="0" end="3600" vehsPerHour="10.81" departLane="best" departPos="random" departSpeed="0" from="34241530#0" to="28231434"/>
  <flow id="car_34241530#0_23241821#0_000564fb" type="car" begin="0" end="3600" vehsPerHour="8.06" departLane="best" departPos="random" departSpeed="0" from="34241530#0" to="23241821#0"/>
  <flow id="motorcycle_34241530#0_198876042#0_000564fb" type="motorcycle" begin="0" end="3600" vehsPerHour="50.48" departLane="best" departPos="random" departSpeed="0" from="34241530#0" to="198876042#0"/>
  <flow id="motorcycle_34241530#0_193253427#0_000564fb" type="motorcycle" begin="0" end="3600" vehsPerHour="41.45" departLane="best" departPos="random" departSpeed="0" from="34241530#0" to="193253427#0"/>
  <flow id="motorcycle_34241530#0_198876043#2_000564fb" type="motorcycle" begin="0" end="3600" vehsPerHour="38.50" departLane="best" departPos="random" departSpeed="0" from="34241530#0" to="198876043#2"/>
  <flow id="motorcycle_34241530#0_28231434_000564fb" type="motorcycle" begin="0" end="3600" vehsPerHour="32.02" departLane="best" departPos="random" departSpeed="0" from="34241530#0" to="28231434"/>
  <flow id="motorcycle_34241530#0_23241821#0_000564fb" type="motorcycle" begin="0" end="3600" vehsPerHour="29.32" departLane="best" departPos="random" departSpeed="0" from="34241530#0" to="23241821#0"/>
  <flow id="truck_34241530#0_198876042#0_000564fb" type="truck" begin="0" end="3600" vehsPerHour="7.08" departLane="best" departPos="random" departSpeed="0" from="34241530#0" to="198876042#0"/>
</routes>
