<routes>
<vType id="car" vClass="passenger" accel="2.6" decel="4.5" sigma="0.5" length="5.0" maxSpeed="13.9"/>
<vType id="motorcycle" vClass="motorcycle" accel="3.0" decel="5.0" sigma="0.5" length="2.0" maxSpeed="14.0"/>
<vType id="truck" vClass="truck" accel="1.2" decel="3.5" sigma="0.5" length="12.0" maxSpeed="10.0"/>

  <flow id="car_222682222#1_193253427#0_0006c731" type="car" begin="0" end="3600" vehsPerHour="35.64" departLane="best" departPos="random" departSpeed="0" from="222682222#1" to="193253427#0"/>
  <flow id="car_222682222#1_198876043#0_0006c731" type="car" begin="0" end="3600" vehsPerHour="30.10" departLane="best" departPos="random" departSpeed="0" from="222682222#1" to="198876043#0"/>
  <flow id="car_222682222#1_28231434_0006c731" type="car" begin="0" end="3600" vehsPerHour="30.35" departLane="best" departPos="random" departSpeed="0" from="222682222#1" to="28231434"/>
  <flow id="car_222682222#1_23241821#0_0006c731" type="car" begin="0" end="3600" vehsPerHour="25.70" departLane="best" departPos="random" departSpeed="0" from="222682222#1" to="23241821#0"/>
  <flow id="car_222682222#1_198876042#0_0006c731" type="car" begin="0" end="3600" vehsPerHour="20.18" departLane="best" departPos="random" departSpeed="0" from="222682222#1" to="198876042#0"/>
  <flow id="motorcycle_222682222#1_193253427#0_0006c731" type="motorcycle" begin="0" end="3600" vehsPerHour="108.38" departLane="best" departPos="random" departSpeed="0" from="222682222#1" to="193253427#0"/>
  <flow id="motorcycle_222682222#1_198876043#0_0006c731" type="motorcycle" begin="0" end="3600" vehsPerHour="96.21" departLane="best" departPos="random" departSpeed="0" from="222682222#1" to="198876043#0"/>
  <flow id="motorcycle_222682222#1_28231434_0006c731" type="motorcycle" begin="0" end="3600" vehsPerHour="88.97" departLane="best" departPos="random" departSpeed="0" from="222682222#1" to="28231434"/>
  <flow id="motorcycle_222682222#1_23241821#0_0006c731" type="motorcycle" begin="0" end="3600" vehsPerHour="68.83" departLane="best" departPos="random" departSpeed="0" from="222682222#1" to="23241821#0"/>
  <flow id="motorcycle_222682222#1_198876042#0_0006c731" type="motorcycle" begin="0" end="3600" vehsPerHour="62.19" departLane="best" departPos="random" departSpeed="0" from="222682222#1" to="198876042#0"/>
  <flow id="car_193253433#2_198876043#0_0006c731" type="car" begin="0" end="3600" vehsPerHour="24.82" departLane="best" departPos="random" departSpeed="0" from="193253433#2" to="198876043#0"/>
  <flow id="car_193253433#2_28231434_0006c731" type="car" begin="0" end="3600" vehsPerHour="20.73" departLane="best" departPos="random" departSpeed="0" from="193253433#2" to="28231434"/>
  <flow id="car_193253433#2_23241821#0_0006c731" type="car" begin="0" end="3600" vehsPerHour="21.37" departLane="best" departPos="random" departSpeed="0" from="193253433#2" to="23241821#0"/>
  <flow id="car_193253433#2_198876042#0_0006c731" type="car" begin="0" end="3600" vehsPerHour="16.02" departLane="best" departPos="random" departSpeed="0" from="193253433#2" to="198876042#0"/>
  <flow id="car_193253433#2_193253427#0_0006c731" type="car" begin="0" end="3600" vehsPerHour="14.46" departLane="best" departPos="random" departSpeed="0" from="193253433#2" to="193253427#0"/>
  <flow id="motorcycle_193253433#2_198876043#0_0006c731" type="motorcycle" begin="0" end="3600" vehsPerHour="68.68" departLane="best" departPos="random" departSpeed="0" from="193253433#2" to="198876043#0"/>
  <flow id="motorcycle_193253433#2_28231434_0006c731" type="motorcycle" begin="0" end="3600" vehsPerHour="62.14" departLane="best" departPos="random" departSpeed="0" from="193253433#2" to="28231434"/>
  <flow id="motorcycle_193253433#2_23241821#0_0006c731" type="motorcycle" begin="0" end="3600" vehsPerHour="55.16" departLane="best" departPos="random" departSpeed="0" from="193253433#2" to="23241821#0"/>
  <flow id="motorcycle_193253433#2_198876042#0_0006c731" type="motorcycle" begin="0" end="3600" vehsPerHour="48.40" departLane="best" departPos="random" departSpeed="0" from="193253433#2" to="198876042#0"/>
  <flow id="motorcycle_193253433#2_193253427#0_0006c731" type="motorcycle" begin="0" end="3600" vehsPerHour="41.39" departLane="best" departPos="random" departSpeed="0" from="193253433#2" to="193253427#0"/>
  <flow id="car_198876045#1_28231434_0006c731" type="car" begin="0" end="3600" vehsPerHour="21.66" departLane="best" departPos="random" departSpeed="0" from="198876045#1" to="28231434"/>
  <flow id="car_198876045#1_23241821#0_0006c731" type="car" begin="0" end="3600" vehsPerHour="19.58" departLane="best" departPos="random" departSpeed="0" from="198876045#1" to="23241821#0"/>
  <flow id="car_198876045#1_198876042#0_0006c731" type="car" begin="0" end="3600" vehsPerHour="16.34" departLane="best" departPos="random" departSpeed="0" from="198876045#1" to="198876042#0"/>
  <flow id="car_198876045#1_193253427#0_0006c731" type="car" begin="0" end="3600" vehsPerHour="13.96" departLane="best" departPos="random" departSpeed="0" from="198876045#1" to="193253427#0"/>
  <flow id="car_198876045#1_198876043#2_0006c731" type="car" begin="0" end="3600" vehsPerHour="11.96" departLane="best" departPos="random" departSpeed="0" from="198876045#1" to="198876043#2"/>
  <flow id="motorcycle_198876045#1_28231434_0006c731" type="motorcycle" begin="0" end="3600" vehsPerHour="61.00" departLane="best" departPos="random" departSpeed="0" from="198876045#1" to="28231434"/>
  <flow id="motorcycle_198876045#1_23241821#0_0006c731" type="motorcycle" begin="0" end="3600" vehsPerHour="53.44" departLane="best" departPos="random" departSpeed="0" from="198876045#1" to="23241821#0"/>
  <flow id="motorcycle_198876045#1_198876042#0_0006c731" type="motorcycle" begin="0" end="3600" vehsPerHour="49.88" departLane="best" departPos="random" departSpeed="0" from="198876045#1" to="198876042#0"/>
  <flow id="motorcycle_198876045#1_193253427#0_0006c731" type="motorcycle" begin="0" end="3600" vehsPerHour="44.00" departLane="best" departPos="random" departSpeed="0" from="198876045#1" to="193253427#0"/>
  <flow id="motorcycle_198876045#1_198876043#2_0006c731" type="motorcycle" begin="0" end="3600" vehsPerHour="41.66" departLane="best" departPos="random" departSpeed="0" from="198876045#1" to="198876043#2"/>
  <flow id="car_-28231434_23241821#0_0006c731" type="car" begin="0" end="3600" vehsPerHour="14.60" departLane="best" departPos="random" departSpeed="0" from="-28231434" to="23241821#0"/>
  <flow id="car_-28231434_198876042#0_0006c731" type="car" begin="0" end="3600" vehsPerHour="12.05" departLane="best" departPos="random" departSpeed="0" from="-28231434" to="198876042#0"/>
  <flow id="car_-28231434_193253427#0_0006c731" type="car" begin="0" end="3600" vehsPerHour="10.23" departLane="best" departPos="random" departSpeed="0" from="-28231434" to="193253427#0"/>
  <flow id="car_-28231434_198876043#2_0006c731" type="car" begin="0" end="3600" vehsPerHour="10.52" departLane="best" departPos="random" departSpeed="0" from="-28231434" to="198876043#2"/>
  <flow id="car_-28231434_28231434_0006c731" type="car" begin="0" end="3600" vehsPerHour="8.65" departLane="best" departPos="random" departSpeed="0" from="-28231434" to="28231434"/>
  <flow id="motorcycle_-28231434_23241821#0_0006c731" type="motorcycle" begin="0" end="3600" vehsPerHour="42.22" departLane="best" departPos="random" departSpeed="0" from="-28231434" to="23241821#0"/>
  <flow id="motorcycle_-28231434_198876042#0_0006c731" type="motorcycle" begin="0" end="3600" vehsPerHour="38.25" departLane="best" departPos="random" departSpeed="0" from="-28231434" to="198876042#0"/>
  <flow id="motorcycle_-28231434_193253427#0_0006c731" type="motorcycle" begin="0" end="3600" vehsPerHour="33.85" departLane="best" departPos="random" departSpeed="0" from="-28231434" to="193253427#0"/>
  <flow id="motorcycle_-28231434_198876043#2_0006c731" type="motorcycle" begin="0" end="3600" vehsPerHour="29.35" departLane="best" departPos="random" departSpeed="0" from="-28231434" to="198876043#2"/>
  <flow id="motorcycle_-28231434_28231434_0006c731" type="motorcycle" begin="0" end="3600" vehsPerHour="23.91" departLane="best" departPos="random" departSpeed="0" from="-28231434" to="28231434"/>
  <flow id="car_-55029244#0_198876042#0_0006c731" type="car" begin="0" end="3600" vehsPerHour="16.60" departLane="best" departPos="random" departSpeed="0" from="-55029244#0" to="198876042#0"/>
  <flow id="car_-55029244#0_193253427#0_0006c731" type="car" begin="0" end="3600" vehsPerHour="14.78" departLane="best" departPos="random" departSpeed="0" from="-55029244#0" to="193253427#0"/>
  <flow id="car_-55029244#0_198876043#2_0006c731" type="car" begin="0" end="3600" vehsPerHour="11.97" departLane="best" departPos="random" departSpeed="0" from="-55029244#0" to="198876043#2"/>
  <flow id="car_-55029244#0_28231434_0006c731" type="car" begin="0" end="3600" vehsPerHour="10.35" departLane="best" departPos="random" departSpeed="0" from="-55029244#0" to="28231434"/>
  <flow id="car_-55029244#0_23241821#0_0006c731" type="car" begin="0" end="3600" vehsPerHour="8.36" departLane="best" departPos="random" departSpeed="0" from="-55029244#0" to="23241821#0"/>
  <flow id="motorcycle_-55029244#0_198876042#0_0006c731" type="motorcycle" begin="0" end="3600" vehsPerHour="47.96" departLane="best" departPos="random" departSpeed="0" from="-55029244#0" to="198876042#0"/>
  <flow id="motorcycle_-55029244#0_193253427#0_0006c731" type="motorcycle" begin="0" end="3600" vehsPerHour="41.13" departLane="best" departPos="random" departSpeed="0" from="-55029244#0" to="193253427#0"/>
  <flow id="motorcycle_-55029244#0_198876043#2_0006c731" type="motorcycle" begin="0" end="3600" vehsPerHour="37.72" departLane="best" departPos="random" departSpeed="0" from="-55029244#0" to="198876043#2"/>
  <flow id="motorcycle_-55029244#0_28231434_0006c731" type="motorcycle" begin="0" end="3600" vehsPerHour="32.98" departLane="best" departPos="random" departSpeed="0" from="-55029244#0" to="28231434"/>
  <flow id="motorcycle_-55029244#0_23241821#0_0006c731" type="motorcycle" begin="0" end="3600" vehsPerHour="29.51" departLane="best" departPos="random" departSpeed="0" from="-55029244#0" to="23241821#0"/>
  <flow id="car_34241530#0_198876042#0_0006c731" type="car" begin="0" end="3600" vehsPerHour="17.11" departLane="best" departPos="random" departSpeed="0" from="34241530#0" to="198876042#0"/>
  <flow id="car_34241530#0_193253427#0_0006c731" type="car" begin="0" end="3600" vehsPerHour="14.36" departLane="best" departPos="random" departSpeed="0" from="34241530#0" to="193253427#0"/>
  <flow id="car_34241530#0_198876043#2_0006c731" type="car" begin="0" end="3600" vehsPerHour="12.25" departLane="best" departPos="random" departSpeed="0" from="34241530#0" to="198876043#2"/>
  <flow id="car_34241530#0_28231434_0006c731" type="car" begin="0" end="3600" vehsPerHour="10.43" departLane="best" departPos="random" departSpeed="0" from="34241530#0" to="28231434"/>
  <flow id="car_34241530#0_23241821#0_0006c731" type="car" begin="0" end="3600" vehsPerHour="8.27" departLane="best" departPos="random" departSpeed="0" from="34241530#0" to="23241821#0"/>
  <flow id="motorcycle_34241530#0_198876042#0_0006c731" type="motorcycle" begin="0" end="3600" vehsPerHour="51.46" departLane="best" departPos="random" departSpeed="0" from="34241530#0" to="198876042#0"/>
  <flow id="motorcycle_34241530#0_193253427#0_0006c731" type="motorcycle" begin="0" end="3600" vehsPerHour="41.65" departLane="best" departPos="random" departSpeed="0" from="34241530#0" to="193253427#0"/>
  <flow id="motorcycle_34241530#0_198876043#2_0006c731" type="motorcycle" begin="0" end="3600" vehsPerHour="37.85" departLane="best" departPos="random" departSpeed="0" from="34241530#0" to="198876043#2"/>
  <flow id="motorcycle_34241530#0_28231434_0006c731" type="motorcycle" begin="0" end="3600" vehsPerHour="31.66" departLane="best" departPos="random" departSpeed="0" from="34241530#0" to="28231434"/>
  <flow id="motorcycle_34241530#0_23241821#0_0006c731" type="motorcycle" begin="0" end="3600" vehsPerHour="28.57" departLane="best" departPos="random" departSpeed="0" from="34241530#0" to="23241821#0"/>
  <flow id="truck_34241530#0_198876042#0_0006c731" type="truck" begin="0" end="3600" vehsPerHour="7.18" departLane="best" departPos="random" departSpeed="0" from="34241530#0" to="198876042#0"/>
</routes>
