<routes>
<vType id="car" vClass="passenger" accel="2.6" decel="4.5" sigma="0.5" length="5.0" maxSpeed="13.9"/>
<vType id="motorcycle" vClass="motorcycle" accel="3.0" decel="5.0" sigma="0.5" length="2.0" maxSpeed="14.0"/>
<vType id="truck" vClass="truck" accel="1.2" decel="3.5" sigma="0.5" length="12.0" maxSpeed="10.0"/>

  <flow id="car_222682222#1_193253427#0_000f41d2" type="car" begin="0" end="3600" vehsPerHour="38.03" departLane="best" departPos="random" departSpeed="0" from="222682222#1" to="193253427#0"/>
  <flow id="car_222682222#1_198876043#0_000f41d2" type="car" begin="0" end="3600" vehsPerHour="31.52" departLane="best" departPos="random" departSpeed="0" from="222682222#1" to="198876043#0"/>
  <flow id="car_222682222#1_28231434_000f41d2" type="car" begin="0" end="3600" vehsPerHour="30.67" departLane="best" departPos="random" departSpeed="0" from="222682222#1" to="28231434"/>
  <flow id="car_222682222#1_23241821#0_000f41d2" type="car" begin="0" end="3600" vehsPerHour="25.20" departLane="best" departPos="random" departSpeed="0" from="222682222#1" to="23241821#0"/>
  <flow id="car_222682222#1_198876042#0_000f41d2" type="car" begin="0" end="3600" vehsPerHour="20.69" departLane="best" departPos="random" departSpeed="0" from="222682222#1" to="198876042#0"/>
  <flow id="motorcycle_222682222#1_193253427#0_000f41d2" type="motorcycle" begin="0" end="3600" vehsPerHour="112.73" departLane="best" departPos="random" departSpeed="0" from="222682222#1" to="193253427#0"/>
  <flow id="motorcycle_222682222#1_198876043#0_000f41d2" type="motorcycle" begin="0" end="3600" vehsPerHour="94.86" departLane="best" departPos="random" departSpeed="0" from="222682222#1" to="198876043#0"/>
  <flow id="motorcycle_222682222#1_28231434_000f41d2" type="motorcycle" begin="0" end="3600" vehsPerHour="84.39" departLane="best" departPos="random" departSpeed="0" from="222682222#1" to="28231434"/>
  <flow id="motorcycle_222682222#1_23241821#0_000f41d2" type="motorcycle" begin="0" end="3600" vehsPerHour="73.76" departLane="best" departPos="random" departSpeed="0" from="222682222#1" to="23241821#0"/>
  <flow id="motorcycle_222682222#1_198876042#0_000f41d2" type="motorcycle" begin="0" end="3600" vehsPerHour="60.53" departLane="best" departPos="random" departSpeed="0" from="222682222#1" to="198876042#0"/>
  <flow id="car_193253433#2_198876043#0_000f41d2" type="car" begin="0" end="3600" vehsPerHour="25.89" departLane="best" departPos="random" departSpeed="0" from="193253433#2" to="198876043#0"/>
  <flow id="car_193253433#2_28231434_000f41d2" type="car" begin="0" end="3600" vehsPerHour="19.90" departLane="best" departPos="random" departSpeed="0" from="193253433#2" to="28231434"/>
  <flow id="car_193253433#2_23241821#0_000f41d2" type="car" begin="0" end="3600" vehsPerHour="21.04" departLane="best" departPos="random" departSpeed="0" from="193253433#2" to="23241821#0"/>
  <flow id="car_193253433#2_198876042#0_000f41d2" type="car" begin="0" end="3600" vehsPerHour="16.00" departLane="best" departPos="random" departSpeed="0" from="193253433#2" to="198876042#0"/>
  <flow id="car_193253433#2_193253427#0_000f41d2" type="car" begin="0" end="3600" vehsPerHour="14.92" departLane="best" departPos="random" departSpeed="0" from="193253433#2" to="193253427#0"/>
  <flow id="motorcycle_193253433#2_198876043#0_000f41d2" type="motorcycle" begin="0" end="3600" vehsPerHour="67.77" departLane="best" departPos="random" departSpeed="0" from="193253433#2" to="198876043#0"/>
  <flow id="motorcycle_193253433#2_28231434_000f41d2" type="motorcycle" begin="0" end="3600" vehsPerHour="62.68" departLane="best" departPos="random" departSpeed="0" from="193253433#2" to="28231434"/>
  <flow id="motorcycle_193253433#2_23241821#0_000f41d2" type="motorcycle" begin="0" end="3600" vehsPerHour="55.55" departLane="best" departPos="random" departSpeed="0" from="193253433#2" to="23241821#0"/>
  <flow id="motorcycle_193253433#2_198876042#0_000f41d2" type="motorcycle" begin="0" end="3600" vehsPerHour="47.98" departLane="best" departPos="random" departSpeed="0" from="193253433#2" to="198876042#0"/>
  <flow id="motorcycle_193253433#2_193253427#0_000f41d2" type="motorcycle" begin="0" end="3600" vehsPerHour="41.37" departLane="best" departPos="random" departSpeed="0" from="193253433#2" to="193253427#0"/>
  <flow id="car_198876045#1_28231434_000f41d2" type="car" begin="0" end="3600" vehsPerHour="20.00" departLane="best" departPos="random" departSpeed="0" from="198876045#1" to="28231434"/>
  <flow id="car_198876045#1_23241821#0_000f41d2" type="car" begin="0" end="3600" vehsPerHour="18.12" departLane="best" departPos="random" departSpeed="0" from="198876045#1" to="23241821#0"/>
  <flow id="car_198876045#1_198876042#0_000f41d2" type="car" begin="0" end="3600" vehsPerHour="16.05" departLane="best" departPos="random" departSpeed="0" from="198876045#1" to="198876042#0"/>
  <flow id="car_198876045#1_193253427#0_000f41d2" type="car" begin="0" end="3600" vehsPerHour="14.71" departLane="best" departPos="random" departSpeed="0" from="198876045#1" to="193253427#0"/>
  <flow id="car_198876045#1_198876043#2_000f41d2" type="car" begin="0" end="3600" vehsPerHour="12.61" departLane="best" departPos="random" departSpeed="0" from="198876045#1" to="198876043#2"/>
  <flow id="motorcycle_198876045#1_28231434_000f41d2" type="motorcycle" begin="0" end="3600" vehsPerHour="62.68" departLane="best" departPos="random" departSpeed="0" from="198876045#1" to="28231434"/>
  <flow id="motorcycle_198876045#1_23241821#0_000f41d2" type="motorcycle" begin="0" end="3600" vehsPerHour="51.67" departLane="best" departPos="random" departSpeed="0" from="198876045#1" to="23241821#0"/>
  <flow id="motorcycle_198876045#1_198876042#0_000f41d2" type="motorcycle" begin="0" end="3600" vehsPerHour="47.57" departLane="best" departPos="random" departSpeed="0" from="198876045#1" to="198876042#0"/>
  <flow id="motorcycle_198876045#1_193253427#0_000f41d2" type="motorcycle" begin="0" end="3600" vehsPerHour="43.95" departLane="best" departPos="random" departSpeed="0" from="198876045#1" to="193253427#0"/>
  <flow id="motorcycle_198876045#1_198876043#2_000f41d2" type="motorcycle" begin="0" end="3600" vehsPerHour="39.77" departLane="best" departPos="random" departSpeed="0" from="198876045#1" to="198876043#2"/>
  <flow id="car_-28231434_23241821#0_000f41d2" type="car" begin="0" end="3600" vehsPerHour="14.37" departLane="best" departPos="random" departSpeed="0" from="-28231434" to="23241821#0"/>
  <flow id="car_-28231434_198876042#0_000f41d2" type="car" begin="0" end="3600" vehsPerHour="12.28" departLane="best" departPos="random" departSpeed="0" from="-28231434" to="198876042#0"/>
  <flow id="car_-28231434_193253427#0_000f41d2" type="car" begin="0" end="3600" vehsPerHour="10.85" departLane="best" departPos="random" departSpeed="0" from="-28231434" to="193253427#0"/>
  <flow id="car_-28231434_198876043#2_000f41d2" type="car" begin="0" end="3600" vehsPerHour="10.73" departLane="best" departPos="random" departSpeed="0" from="-28231434" to="198876043#2"/>
  <flow id="car_-28231434_28231434_000f41d2" type="car" begin="0" end="3600" vehsPerHour="8.61" departLane="best" departPos="random" departSpeed="0" from="-28231434" to="28231434"/>
  <flow id="motorcycle_-28231434_23241821#0_000f41d2" type="motorcycle" begin="0" end="3600" vehsPerHour="41.33" departLane="best" departPos="random" departSpeed="0" from="-28231434" to="23241821#0"/>
  <flow id="motorcycle_-28231434_198876042#0_000f41d2" type="motorcycle" begin="0" end="3600" vehsPerHour="37.79" departLane="best" departPos="random" departSpeed="0" from="-28231434" to="198876042#0"/>
  <flow id="motorcycle_-28231434_193253427#0_000f41d2" type="motorcycle" begin="0" end="3600" vehsPerHour="33.98" departLane="best" departPos="random" departSpeed="0" from="-28231434" to="193253427#0"/>
  <flow id="motorcycle_-28231434_198876043#2_000f41d2" type="motorcycle" begin="0" end="3600" vehsPerHour="29.31" departLane="best" departPos="random" departSpeed="0" from="-28231434" to="198876043#2"/>
  <flow id="motorcycle_-28231434_28231434_000f41d2" type="motorcycle" begin="0" end="3600" vehsPerHour="24.57" departLane="best" departPos="random" departSpeed="0" from="-28231434" to="28231434"/>
  <flow id="car_-55029244#0_198876042#0_000f41d2" type="car" begin="0" end="3600" vehsPerHour="16.24" departLane="best" departPos="random" departSpeed="0" from="-55029244#0" to="198876042#0"/>
  <flow id="car_-55029244#0_193253427#0_000f41d2" type="car" begin="0" end="3600" vehsPerHour="13.83" departLane="best" departPos="random" departSpeed="0" from="-55029244#0" to="193253427#0"/>
  <flow id="car_-55029244#0_198876043#2_000f41d2" type="car" begin="0" end="3600" vehsPerHour="11.86" departLane="best" departPos="random" departSpeed="0" from="-55029244#0" to="198876043#2"/>
  <flow id="car_-55029244#0_28231434_000f41d2" type="car" begin="0" end="3600" vehsPerHour="10.27" departLane="best" departPos="random" departSpeed="0" from="-55029244#0" to="28231434"/>
  <flow id="car_-55029244#0_23241821#0_000f41d2" type="car" begin="0" end="3600" vehsPerHour="8.31" departLane="best" departPos="random" departSpeed="0" from="-55029244#0" to="23241821#0"/>
  <flow id="motorcycle_-55029244#0_198876042#0_000f41d2" type="motorcycle" begin="0" end="3600" vehsPerHour="51.14" departLane="best" departPos="random" departSpeed="0" from="-55029244#0" to="198876042#0"/>
  <flow id="motorcycle_-55029244#0_193253427#0_000f41d2" type="motorcycle" begin="0" end="3600" vehsPerHour="41.17" departLane="best" departPos="random" departSpeed="0" from="-55029244#0" to="193253427#0"/>
  <flow id="motorcycle_-55029244#0_198876043#2_000f41d2" type="motorcycle" begin="0" end="3600" vehsPerHour="38.32" departLane="best" departPos="random" departSpeed="0" from="-55029244#0" to="198876043#2"/>
  <flow id="motorcycle_-55029244#0_28231434_000f41d2" type="motorcycle" begin="0" end="3600" vehsPerHour="33.79" departLane="best" departPos="random" departSpeed="0" from="-55029244#0" to="28231434"/>
  <flow id="motorcycle_-55029244#0_23241821#0_000f41d2" type="motorcycle" begin="0" end="3600" vehsPerHour="29.89" departLane="best" departPos="random" departSpeed="0" from="-55029244#0" to="23241821#0"/>
  <flow id="car_34241530#0_198876042#0_000f41d2" type="car" begin="0" end="3600" vehsPerHour="17.28" departLane="best" departPos="random" departSpeed="0" from="34241530#0" to="198876042#0"/>
  <flow id="car_34241530#0_193253427#0_000f41d2" type="car" begin="0" end="3600" vehsPerHour="14.64" departLane="best" departPos="random" departSpeed="0" from="34241530#0" to="193253427#0"/>
  <flow id="car_34241530#0_198876043#2_000f41d2" type="car" begin="0" end="3600" vehsPerHour="12.25" departLane="best" departPos="random" departSpeed="0" from="34241530#0" to="198876043#2"/>
  <flow id="car_34241530#0_28231434_000f41d2" type="car" begin="0" end="3600" vehsPerHour="10.56" departLane="best" departPos="random" departSpeed="0" from="34241530#0" to="28231434"/>
  <flow id="car_34241530#0_23241821#0_000f41d2" type="car" begin="0" end="3600" vehsPerHour="7.97" departLane="best" departPos="random" departSpeed="0" from="34241530#0" to="23241821#0"/>
  <flow id="motorcycle_34241530#0_198876042#0_000f41d2" type="motorcycle" begin="0" end="3600" vehsPerHour="51.29" departLane="best" departPos="random" departSpeed="0" from="34241530#0" to="198876042#0"/>
  <flow id="motorcycle_34241530#0_193253427#0_000f41d2" type="motorcycle" begin="0" end="3600" vehsPerHour="42.03" departLane="best" departPos="random" departSpeed="0" from="34241530#0" to="193253427#0"/>
  <flow id="motorcycle_34241530#0_198876043#2_000f41d2" type="motorcycle" begin="0" end="3600" vehsPerHour="37.95" departLane="best" departPos="random" departSpeed="0" from="34241530#0" to="198876043#2"/>
  <flow id="motorcycle_34241530#0_28231434_000f41d2" type="motorcycle" begin="0" end="3600" vehsPerHour="33.42" departLane="best" departPos="random" departSpeed="0" from="34241530#0" to="28231434"/>
  <flow id="motorcycle_34241530#0_23241821#0_000f41d2" type="motorcycle" begin="0" end="3600" vehsPerHour="29.25" departLane="best" departPos="random" departSpeed="0" from="34241530#0" to="23241821#0"/>
  <flow id="truck_34241530#0_198876042#0_000f41d2" type="truck" begin="0" end="3600" vehsPerHour="7.07" departLane="best" departPos="random" departSpeed="0" from="34241530#0" to="198876042#0"/>
</routes>
