<routes>
<vType id="car" vClass="passenger" accel="2.6" decel="4.5" sigma="0.5" length="5.0" maxSpeed="13.9"/>
<vType id="motorcycle" vClass="motorcycle" accel="3.0" decel="5.0" sigma="0.5" length="2.0" maxSpeed="14.0"/>
<vType id="truck" vClass="truck" accel="1.2" decel="3.5" sigma="0.5" length="12.0" maxSpeed="10.0"/>

  <flow id="car_222682222#1_193253427#0_000992ee" type="car" begin="0" end="3600" vehsPerHour="37.39" departLane="best" departPos="random" departSpeed="0" from="222682222#1" to="193253427#0"/>
  <flow id="car_222682222#1_198876043#0_000992ee" type="car" begin="0" end="3600" vehsPerHour="31.51" departLane="best" departPos="random" departSpeed="0" from="222682222#1" to="198876043#0"/>
  <flow id="car_222682222#1_28231434_000992ee" type="car" begin="0" end="3600" vehsPerHour="30.55" departLane="best" departPos="random" departSpeed="0" from="222682222#1" to="28231434"/>
  <flow id="car_222682222#1_23241821#0_000992ee" type="car" begin="0" end="3600" vehsPerHour="24.38" departLane="best" departPos="random" departSpeed="0" from="222682222#1" to="23241821#0"/>
  <flow id="car_222682222#1_198876042#0_000992ee" type="car" begin="0" end="3600" vehsPerHour="19.74" departLane="best" departPos="random" departSpeed="0" from="222682222#1" to="198876042#0"/>
  <flow id="motorcycle_222682222#1_193253427#0_000992ee" type="motorcycle" begin="0" end="3600" vehsPerHour="102.88" departLane="best" departPos="random" departSpeed="0" from="222682222#1" to="193253427#0"/>
  <flow id="motorcycle_222682222#1_198876043#0_000992ee" type="motorcycle" begin="0" end="3600" vehsPerHour="93.09" departLane="best" departPos="random" departSpeed="0" from="222682222#1" to="198876043#0"/>
  <flow id="motorcycle_222682222#1_28231434_000992ee" type="motorcycle" begin="0" end="3600" vehsPerHour="83.99" departLane="best" departPos="random" departSpeed="0" from="222682222#1" to="28231434"/>
  <flow id="motorcycle_222682222#1_23241821#0_000992ee" type="motorcycle" begin="0" end="3600" vehsPerHour="69.35" departLane="best" departPos="random" departSpeed="0" from="222682222#1" to="23241821#0"/>
  <flow id="motorcycle_222682222#1_198876042#0_000992ee" type="motorcycle" begin="0" end="3600" vehsPerHour="63.45" departLane="best" departPos="random" departSpeed="0" from="222682222#1" to="198876042#0"/>
  <flow id="car_193253433#2_198876043#0_000992ee" type="car" begin="0" end="3600" vehsPerHour="24.81" departLane="best" departPos="random" departSpeed="0" from="193253433#2" to="198876043#0"/>
  <flow id="car_193253433#2_28231434_000992ee" type="car" begin="0" end="3600" vehsPerHour="21.76" departLane="best" departPos="random" departSpeed="0" from="193253433#2" to="28231434"/>
  <flow id="car_193253433#2_23241821#0_000992ee" type="car" begin="0" end="3600" vehsPerHour="21.50" departLane="best" departPos="random" departSpeed="0" from="193253433#2" to="23241821#0"/>
  <flow id="car_193253433#2_198876042#0_000992ee" type="car" begin="0" end="3600" vehsPerHour="17.27" departLane="best" departPos="random" departSpeed="0" from="193253433#2" to="198876042#0"/>
  <flow id="car_193253433#2_193253427#0_000992ee" type="car" begin="0" end="3600" vehsPerHour="14.41" departLane="best" departPos="random" departSpeed="0" from="193253433#2" to="193253427#0"/>
  <flow id="motorcycle_193253433#2_198876043#0_000992ee" type="motorcycle" begin="0" end="3600" vehsPerHour="74.02" departLane="best" departPos="random" departSpeed="0" from="193253433#2" to="198876043#0"/>
  <flow id="motorcycle_193253433#2_28231434_000992ee" type="motorcycle" begin="0" end="3600" vehsPerHour="64.59" departLane="best" departPos="random" departSpeed="0" from="193253433#2" to="28231434"/>
  <flow id="motorcycle_193253433#2_23241821#0_000992ee" type="motorcycle" begin="0" end="3600" vehsPerHour="57.03" departLane="best" departPos="random" departSpeed="0" from="193253433#2" to="23241821#0"/>
  <flow id="motorcycle_193253433#2_198876042#0_000992ee" type="motorcycle" begin="0" end="3600" vehsPerHour="50.00" departLane="best" departPos="random" departSpeed="0" from="193253433#2" to="198876042#0"/>
  <flow id="motorcycle_193253433#2_193253427#0_000992ee" type="motorcycle" begin="0" end="3600" vehsPerHour="40.68" departLane="best" departPos="random" departSpeed="0" from="193253433#2" to="193253427#0"/>
  <flow id="car_198876045#1_28231434_000992ee" type="car" begin="0" end="3600" vehsPerHour="21.11" departLane="best" departPos="random" departSpeed="0" from="198876045#1" to="28231434"/>
  <flow id="car_198876045#1_23241821#0_000992ee" type="car" begin="0" end="3600" vehsPerHour="18.63" departLane="best" departPos="random" departSpeed="0" from="198876045#1" to="23241821#0"/>
  <flow id="car_198876045#1_198876042#0_000992ee" type="car" begin="0" end="3600" vehsPerHour="16.11" departLane="best" departPos="random" departSpeed="0" from="198876045#1" to="198876042#0"/>
  <flow id="car_198876045#1_193253427#0_000992ee" type="car" begin="0" end="3600" vehsPerHour="15.24" departLane="best" departPos="random" departSpeed="0" from="198876045#1" to="193253427#0"/>
  <flow id="car_198876045#1_198876043#2_000992ee" type="car" begin="0" end="3600" vehsPerHour="11.93" departLane="best" departPos="random" departSpeed="0" from="198876045#1" to="198876043#2"/>
  <flow id="motorcycle_198876045#1_28231434_000992ee" type="motorcycle" begin="0" end="3600" vehsPerHour="61.62" departLane="best" departPos="random" departSpeed="0" from="198876045#1" to="28231434"/>
  <flow id="motorcycle_198876045#1_23241821#0_000992ee" type="motorcycle" begin="0" end="3600" vehsPerHour="54.49" departLane="best" departPos="random" departSpeed="0" from="198876045#1" to="23241821#0"/>
  <flow id="motorcycle_198876045#1_198876042#0_000992ee" type="motorcycle" begin="0" end="3600" vehsPerHour="51.58" departLane="best" departPos="random" departSpeed="0" from="198876045#1" to="198876042#0"/>
  <flow id="motorcycle_198876045#1_193253427#0_000992ee" type="motorcycle" begin="0" end="3600" vehsPerHour="44.64" departLane="best" departPos="random" departSpeed="0" from="198876045#1" to="193253427#0"/>
  <flow id="motorcycle_198876045#1_198876043#2_000992ee" type="motorcycle" begin="0" end="3600" vehsPerHour="40.73" departLane="best" departPos="random" departSpeed="0" from="198876045#1" to="198876043#2"/>
  <flow id="car_-28231434_23241821#0_000992ee" type="car" begin="0" end="3600" vehsPerHour="14.12" departLane="best" departPos="random" departSpeed="0" from="-28231434" to="23241821#0"/>
  <flow id="car_-28231434_198876042#0_000992ee" type="car" begin="0" end="3600" vehsPerHour="12.97" departLane="best" departPos="random" departSpeed="0" from="-28231434" to="198876042#0"/>
  <flow id="car_-28231434_193253427#0_000992ee" type="car" begin="0" end="3600" vehsPerHour="10.69" departLane="best" departPos="random" departSpeed="0" from="-28231434" to="193253427#0"/>
  <flow id="car_-28231434_198876043#2_000992ee" type="car" begin="0" end="3600" vehsPerHour="10.11" departLane="best" departPos="random" departSpeed="0" from="-28231434" to="198876043#2"/>
  <flow id="car_-28231434_28231434_000992ee" type="car" begin="0" end="3600" vehsPerHour="8.53" departLane="best" departPos="random" departSpeed="0" from="-28231434" to="28231434"/>
  <flow id="motorcycle_-28231434_23241821#0_000992ee" type="motorcycle" begin="0" end="3600" vehsPerHour="41.92" departLane="best" departPos="random" departSpeed="0" from="-28231434" to="23241821#0"/>
  <flow id="motorcycle_-28231434_198876042#0_000992ee" type="motorcycle" begin="0" end="3600" vehsPerHour="38.07" departLane="best" departPos="random" departSpeed="0" from="-28231434" to="198876042#0"/>
  <flow id="motorcycle_-28231434_193253427#0_000992ee" type="motorcycle" begin="0" end="3600" vehsPerHour="34.60" departLane="best" departPos="random" departSpeed="0" from="-28231434" to="193253427#0"/>
  <flow id="motorcycle_-28231434_198876043#2_000992ee" type="motorcycle" begin="0" end="3600" vehsPerHour="28.30" departLane="best" departPos="random" departSpeed="0" from="-28231434" to="198876043#2"/>
  <flow id="motorcycle_-28231434_28231434_000992ee" type="motorcycle" begin="0" end="3600" vehsPerHour="25.49" departLane="best" departPos="random" departSpeed="0" from="-28231434" to="28231434"/>
  <flow id="car_-55029244#0_198876042#0_000992ee" type="car" begin="0" end="3600" vehsPerHour="16.57" departLane="best" departPos="random" departSpeed="0" from="-55029244#0" to="198876042#0"/>
  <flow id="car_-55029244#0_193253427#0_000992ee" type="car" begin="0" end="3600" vehsPerHour="14.10" departLane="best" departPos="random" departSpeed="0" from="-55029244#0" to="193253427#0"/>
  <flow id="car_-55029244#0_198876043#2_000992ee" type="car" begin="0" end="3600" vehsPerHour="11.94" departLane="best" departPos="random" departSpeed="0" from="-55029244#0" to="198876043#2"/>
  <flow id="car_-55029244#0_28231434_000992ee" type="car" begin="0" end="3600" vehsPerHour="10.82" departLane="best" departPos="random" departSpeed="0" from="-55029244#0" to="28231434"/>
  <flow id="car_-55029244#0_23241821#0_000992ee" type="car" begin="0" end="3600" vehsPerHour="8.13" departLane="best" departPos="random" departSpeed="0" from="-55029244#0" to="23241821#0"/>
  <flow id="motorcycle_-55029244#0_198876042#0_000992ee" type="motorcycle" begin="0" end="3600" vehsPerHour="47.69" departLane="best" departPos="random" departSpeed="0" from="-55029244#0" to="198876042#0"/>
  <flow id="motorcycle_-55029244#0_193253427#0_000992ee" type="motorcycle" begin="0" end="3600" vehsPerHour="42.84" departLane="best" departPos="random" departSpeed="0" from="-55029244#0" to="193253427#0"/>
  <flow id="motorcycle_-55029244#0_198876043#2_000992ee" type="motorcycle" begin="0" end="3600" vehsPerHour="36.36" departLane="best" departPos="random" departSpeed="0" from="-55029244#0" to="198876043#2"/>
  <flow id="motorcycle_-55029244#0_28231434_000992ee" type="motorcycle" begin="0" end="3600" vehsPerHour="33.92" departLane="best" departPos="random" departSpeed="0" from="-55029244#0" to="28231434"/>
  <flow id="motorcycle_-55029244#0_23241821#0_000992ee" type="motorcycle" begin="0" end="3600" vehsPerHour="30.19" departLane="best" departPos="random" departSpeed="0" from="-55029244#0" to="23241821#0"/>
  <flow id="car_34241530#0_198876042#0_000992ee" type="car" begin="0" end="3600" vehsPerHour="16.46" departLane="best" departPos="random" departSpeed="0" from="34241530#0" to="198876042#0"/>
  <flow id="car_34241530#0_193253427#0_000992ee" type="car" begin="0" end="3600" vehsPerHour="14.76" departLane="best" departPos="random" departSpeed="0" from="34241530#0" to="193253427#0"/>
  <flow id="car_34241530#0_198876043#2_000992ee" type="car" begin="0" end="3600" vehsPerHour="12.61" departLane="best" departPos="random" departSpeed="0" from="34241530#0" to="198876043#2"/>
  <flow id="car_34241530#0_28231434_000992ee" type="car" begin="0" end="3600" vehsPerHour="10.36" departLane="best" departPos="random" departSpeed="0" from="34241530#0" to="28231434"/>
  <flow id="car_34241530#0_23241821#0_000992ee" type="car" begin="0" end="3600" vehsPerHour="7.93" departLane="best" departPos="random" departSpeed="0" from="34241530#0" to="23241821#0"/>
  <flow id="motorcycle_34241530#0_198876042#0_000992ee" type="motorcycle" begin="0" end="3600" vehsPerHour="50.90" departLane="best" departPos="random" departSpeed="0" from="34241530#0" to="198876042#0"/>
  <flow id="motorcycle_34241530#0_193253427#0_000992ee" type="motorcycle" begin="0" end="3600" vehsPerHour="39.51" departLane="best" departPos="random" departSpeed="0" from="34241530#0" to="193253427#0"/>
  <flow id="motorcycle_34241530#0_198876043#2_000992ee" type="motorcycle" begin="0" end="3600" vehsPerHour="37.70" departLane="best" departPos="random" departSpeed="0" from="34241530#0" to="198876043#2"/>
  <flow id="motorcycle_34241530#0_28231434_000992ee" type="motorcycle" begin="0" end="3600" vehsPerHour="32.04" departLane="best" departPos="random" departSpeed="0" from="34241530#0" to="28231434"/>
  <flow id="motorcycle_34241530#0_23241821#0_000992ee" type="motorcycle" begin="0" end="3600" vehsPerHour="28.10" departLane="best" departPos="random" departSpeed="0" from="34241530#0" to="23241821#0"/>
  <flow id="truck_34241530#0_198876042#0_000992ee" type="truck" begin="0" end="3600" vehsPerHour="7.55" departLane="best" departPos="random" departSpeed="0" from="34241530#0" to="198876042#0"/>
</routes>
