<routes>
<vType id="car" vClass="passenger" accel="2.6" decel="4.5" sigma="0.5" length="5.0" maxSpeed="13.9"/>
<vType id="motorcycle" vClass="motorcycle" accel="3.0" decel="5.0" sigma="0.5" length="2.0" maxSpeed="14.0"/>
<vType id="truck" vClass="truck" accel="1.2" decel="3.5" sigma="0.5" length="12.0" maxSpeed="10.0"/>

  <flow id="car_222682222#1_193253427#0_000a8718" type="car" begin="0" end="3600" vehsPerHour="36.77" departLane="best" departPos="random" departSpeed="0" from="222682222#1" to="193253427#0"/>
  <flow id="car_222682222#1_198876043#0_000a8718" type="car" begin="0" end="3600" vehsPerHour="30.98" departLane="best" departPos="random" departSpeed="0" from="222682222#1" to="198876043#0"/>
  <flow id="car_222682222#1_28231434_000a8718" type="car" begin="0" end="3600" vehsPerHour="31.56" departLane="best" departPos="random" departSpeed="0" from="222682222#1" to="28231434"/>
  <flow id="car_222682222#1_23241821#0_000a8718" type="car" begin="0" end="3600" vehsPerHour="24.05" departLane="best" departPos="random" departSpeed="0" from="222682222#1" to="23241821#0"/>
  <flow id="car_222682222#1_198876042#0_000a8718" type="car" begin="0" end="3600" vehsPerHour="21.00" departLane="best" departPos="random" departSpeed="0" from="222682222#1" to="198876042#0"/>
  <flow id="motorcycle_222682222#1_193253427#0_000a8718" type="motorcycle" begin="0" end="3600" vehsPerHour="108.40" departLane="best" departPos="random" departSpeed="0" from="222682222#1" to="193253427#0"/>
  <flow id="motorcycle_222682222#1_198876043#0_000a8718" type="motorcycle" begin="0" end="3600" vehsPerHour="97.47" departLane="best" departPos="random" departSpeed="0" from="222682222#1" to="198876043#0"/>
  <flow id="motorcycle_222682222#1_28231434_000a8718" type="motorcycle" begin="0" end="3600" vehsPerHour="89.51" departLane="best" departPos="random" departSpeed="0" from="222682222#1" to="28231434"/>
  <flow id="motorcycle_222682222#1_23241821#0_000a8718" type="motorcycle" begin="0" end="3600" vehsPerHour="68.69" departLane="best" departPos="random" departSpeed="0" from="222682222#1" to="23241821#0"/>
  <flow id="motorcycle_222682222#1_198876042#0_000a8718" type="motorcycle" begin="0" end="3600" vehsPerHour="61.00" departLane="best" departPos="random" departSpeed="0" from="222682222#1" to="198876042#0"/>
  <flow id="car_193253433#2_198876043#0_000a8718" type="car" begin="0" end="3600" vehsPerHour="24.53" departLane="best" departPos="random" departSpeed="0" from="193253433#2" to="198876043#0"/>
  <flow id="car_193253433#2_28231434_000a8718" type="car" begin="0" end="3600" vehsPerHour="21.13" departLane="best" departPos="random" departSpeed="0" from="193253433#2" to="28231434"/>
  <flow id="car_193253433#2_23241821#0_000a8718" type="car" begin="0" end="3600" vehsPerHour="20.36" departLane="best" departPos="random" departSpeed="0" from="193253433#2" to="23241821#0"/>
  <flow id="car_193253433#2_198876042#0_000a8718" type="car" begin="0" end="3600" vehsPerHour="16.95" departLane="best" departPos="random" departSpeed="0" from="193253433#2" to="198876042#0"/>
  <flow id="car_193253433#2_193253427#0_000a8718" type="car" begin="0" end="3600" vehsPerHour="13.97" departLane="best" departPos="random" departSpeed="0" from="193253433#2" to="193253427#0"/>
  <flow id="motorcycle_193253433#2_198876043#0_000a8718" type="motorcycle" begin="0" end="3600" vehsPerHour="70.70" departLane="best" departPos="random" departSpeed="0" from="193253433#2" to="198876043#0"/>
  <flow id="motorcycle_193253433#2_28231434_000a8718" type="motorcycle" begin="0" end="3600" vehsPerHour="63.42" departLane="best" departPos="random" departSpeed="0" from="193253433#2" to="28231434"/>
  <flow id="motorcycle_193253433#2_23241821#0_000a8718" type="motorcycle" begin="0" end="3600" vehsPerHour="56.92" departLane="best" departPos="random" departSpeed="0" from="193253433#2" to="23241821#0"/>
  <flow id="motorcycle_193253433#2_198876042#0_000a8718" type="motorcycle" begin="0" end="3600" vehsPerHour="47.35" departLane="best" departPos="random" departSpeed="0" from="193253433#2" to="198876042#0"/>
  <flow id="motorcycle_193253433#2_193253427#0_000a8718" type="motorcycle" begin="0" end="3600" vehsPerHour="42.78" departLane="best" departPos="random" departSpeed="0" from="193253433#2" to="193253427#0"/>
  <flow id="car_198876045#1_28231434_000a8718" type="car" begin="0" end="3600" vehsPerHour="21.56" departLane="best" departPos="random" departSpeed="0" from="198876045#1" to="28231434"/>
  <flow id="car_198876045#1_23241821#0_000a8718" type="car" begin="0" end="3600" vehsPerHour="17.87" departLane="best" departPos="random" departSpeed="0" from="198876045#1" to="23241821#0"/>
  <flow id="car_198876045#1_198876042#0_000a8718" type="car" begin="0" end="3600" vehsPerHour="16.35" departLane="best" departPos="random" departSpeed="0" from="198876045#1" to="198876042#0"/>
  <flow id="car_198876045#1_193253427#0_000a8718" type="car" begin="0" end="3600" vehsPerHour="14.57" departLane="best" departPos="random" departSpeed="0" from="198876045#1" to="193253427#0"/>
  <flow id="car_198876045#1_198876043#2_000a8718" type="car" begin="0" end="3600" vehsPerHour="12.08" departLane="best" departPos="random" departSpeed="0" from="198876045#1" to="198876043#2"/>
  <flow id="motorcycle_198876045#1_28231434_000a8718" type="motorcycle" begin="0" end="3600" vehsPerHour="65.26" departLane="best" departPos="random" departSpeed="0" from="198876045#1" to="28231434"/>
  <flow id="motorcycle_198876045#1_23241821#0_000a8718" type="motorcycle" begin="0" end="3600" vehsPerHour="55.53" departLane="best" departPos="random" departSpeed="0" from="198876045#1" to="23241821#0"/>
  <flow id="motorcycle_198876045#1_198876042#0_000a8718" type="motorcycle" begin="0" end="3600" vehsPerHour="49.82" departLane="best" departPos="random" departSpeed="0" from="198876045#1" to="198876042#0"/>
  <flow id="motorcycle_198876045#1_193253427#0_000a8718" type="motorcycle" begin="0" end="3600" vehsPerHour="47.09" departLane="best" departPos="random" departSpeed="0" from="198876045#1" to="193253427#0"/>
  <flow id="motorcycle_198876045#1_198876043#2_000a8718" type="motorcycle" begin="0" end="3600" vehsPerHour="41.30" departLane="best" departPos="random" departSpeed="0" from="198876045#1" to="198876043#2"/>
  <flow id="car_-28231434_23241821#0_000a8718" type="car" begin="0" end="3600" vehsPerHour="14.86" departLane="best" departPos="random" departSpeed="0" from="-28231434" to="23241821#0"/>
  <flow id="car_-28231434_198876042#0_000a8718" type="car" begin="0" end="3600" vehsPerHour="12.11" departLane="best" departPos="random" departSpeed="0" from="-28231434" to="198876042#0"/>
  <flow id="car_-28231434_193253427#0_000a8718" type="car" begin="0" end="3600" vehsPerHour="10.62" departLane="best" departPos="random" departSpeed="0" from="-28231434" to="193253427#0"/>
  <flow id="car_-28231434_198876043#2_000a8718" type="car" begin="0" end="3600" vehsPerHour="10.36" departLane="best" departPos="random" departSpeed="0" from="-28231434" to="198876043#2"/>
  <flow id="car_-28231434_28231434_000a8718" type="car" begin="0" end="3600" vehsPerHour="8.55" departLane="best" departPos="random" departSpeed="0" from="-28231434" to="28231434"/>
  <flow id="motorcycle_-28231434_23241821#0_000a8718" type="motorcycle" begin="0" end="3600" vehsPerHour="39.98" departLane="best" departPos="random" departSpeed="0" from="-28231434" to="23241821#0"/>
  <flow id="motorcycle_-28231434_198876042#0_000a8718" type="motorcycle" begin="0" end="3600" vehsPerHour="37.12" departLane="best" departPos="random" departSpeed="0" from="-28231434" to="198876042#0"/>
  <flow id="motorcycle_-28231434_193253427#0_000a8718" type="motorcycle" begin="0" end="3600" vehsPerHour="34.66" departLane="best" departPos="random" departSpeed="0" from="-28231434" to="193253427#0"/>
  <flow id="motorcycle_-28231434_198876043#2_000a8718" type="motorcycle" begin="0" end="3600" vehsPerHour="28.37" departLane="best" departPos="random" departSpeed="0" from="-28231434" to="198876043#2"/>
  <flow id="motorcycle_-28231434_28231434_000a8718" type="motorcycle" begin="0" end="3600" vehsPerHour="24.12" departLane="best" departPos="random" departSpeed="0" from="-28231434" to="28231434"/>
  <flow id="car_-55029244#0_198876042#0_000a8718" type="car" begin="0" end="3600" vehsPerHour="16.54" departLane="best" departPos="random" departSpeed="0" from="-55029244#0" to="198876042#0"/>
  <flow id="car_-55029244#0_193253427#0_000a8718" type="car" begin="0" end="3600" vehsPerHour="13.90" departLane="best" departPos="random" departSpeed="0" from="-55029244#0" to="193253427#0"/>
  <flow id="car_-55029244#0_198876043#2_000a8718" type="car" begin="0" end="3600" vehsPerHour="12.27" departLane="best" departPos="random" departSpeed="0" from="-55029244#0" to="198876043#2"/>
  <flow id="car_-55029244#0_28231434_000a8718" type="car" begin="0" end="3600" vehsPerHour="10.49" departLane="best" departPos="random" departSpeed="0" from="-55029244#0" to="28231434"/>
  <flow id="car_-55029244#0_23241821#0_000a8718" type="car" begin="0" end="3600" vehsPerHour="8.11" departLane="best" departPos="random" departSpeed="0" from="-55029244#0" to="23241821#0"/>
  <flow id="motorcycle_-55029244#0_198876042#0_000a8718" type="motorcycle" begin="0" end="3600" vehsPerHour="50.68" departLane="best" departPos="random" departSpeed="0" from="-55029244#0" to="198876042#0"/>
  <flow id="motorcycle_-55029244#0_193253427#0_000a8718" type="motorcycle" begin="0" end="3600" vehsPerHour="40.26" departLane="best" departPos="random" departSpeed="0" from="-55029244#0" to="193253427#0"/>
  <flow id="motorcycle_-55029244#0_198876043#2_000a8718" type="motorcycle" begin="0" end="3600" vehsPerHour="36.65" departLane="best" departPos="random" departSpeed="0" from="-55029244#0" to="198876043#2"/>
  <flow id="motorcycle_-55029244#0_28231434_000a8718" type="motorcycle" begin="0" end="3600" vehsPerHour="31.71" departLane="best" departPos="random" departSpeed="0" from="-55029244#0" to="28231434"/>
  <flow id="motorcycle_-55029244#0_23241821#0_000a8718" type="motorcycle" begin="0" end="3600" vehsPerHour="30.24" departLane="best" departPos="random" departSpeed="0" from="-55029244#0" to="23241821#0"/>
  <flow id="car_34241530#0_198876042#0_000a8718" type="car" begin="0" end="3600" vehsPerHour="16.98" departLane="best" departPos="random" departSpeed="0" from="34241530#0" to="198876042#0"/>
  <flow id="car_34241530#0_193253427#0_000a8718" type="car" begin="0" end="3600" vehsPerHour="14.41" departLane="best" departPos="random" departSpeed="0" from="34241530#0" to="193253427#0"/>
  <flow id="car_34241530#0_198876043#2_000a8718" type="car" begin="0" end="3600" vehsPerHour="12.96" departLane="best" departPos="random" departSpeed="0" from="34241530#0" to="198876043#2"/>
  <flow id="car_34241530#0_28231434_000a8718" type="car" begin="0" end="3600" vehsPerHour="10.43" departLane="best" departPos="random" departSpeed="0" from="34241530#0" to="28231434"/>
  <flow id="car_34241530#0_23241821#0_000a8718" type="car" begin="0" end="3600" vehsPerHour="8.37" departLane="best" departPos="random" departSpeed="0" from="34241530#0" to="23241821#0"/>
  <flow id="motorcycle_34241530#0_198876042#0_000a8718" type="motorcycle" begin="0" end="3600" vehsPerHour="50.04" departLane="best" departPos="random" departSpeed="0" from="34241530#0" to="198876042#0"/>
  <flow id="motorcycle_34241530#0_193253427#0_000a8718" type="motorcycle" begin="0" end="3600" vehsPerHour="41.43" departLane="best" departPos="random" departSpeed="0" from="34241530#0" to="193253427#0"/>
  <flow id="motorcycle_34241530#0_198876043#2_000a8718" type="motorcycle" begin="0" end="3600" vehsPerHour="39.01" departLane="best" departPos="random" departSpeed="0" from="34241530#0" to="198876043#2"/>
  <flow id="motorcycle_34241530#0_28231434_000a8718" type="motorcycle" begin="0" end="3600" vehsPerHour="34.75" departLane="best" departPos="random" departSpeed="0" from="34241530#0" to="28231434"/>
  <flow id="motorcycle_34241530#0_23241821#0_000a8718" type="motorcycle" begin="0" end="3600" vehsPerHour="29.26" departLane="best" departPos="random" departSpeed="0" from="34241530#0" to="23241821#0"/>
  <flow id="truck_34241530#0_198876042#0_000a8718" type="truck" begin="0" end="3600" vehsPerHour="7.53" departLane="best" departPos="random" departSpeed="0" from="34241530#0" to="198876042#0"/>
</routes>
