<routes>
<vType id="car" vClass="passenger" accel="2.6" decel="4.5" sigma="0.5" length="5.0" maxSpeed="13.9"/>
<vType id="motorcycle" vClass="motorcycle" accel="3.0" decel="5.0" sigma="0.5" length="2.0" maxSpeed="14.0"/>
<vType id="truck" vClass="truck" accel="1.2" decel="3.5" sigma="0.5" length="12.0" maxSpeed="10.0"/>

  <flow id="car_222682222#1_193253427#0_00081d77" type="car" begin="0" end="3600" vehsPerHour="38.65" departLane="best" departPos="random" departSpeed="0" from="222682222#1" to="193253427#0"/>
  <flow id="car_222682222#1_198876043#0_00081d77" type="car" begin="0" end="3600" vehsPerHour="30.00" departLane="best" departPos="random" departSpeed="0" from="222682222#1" to="198876043#0"/>
  <flow id="car_222682222#1_28231434_00081d77" type="car" begin="0" end="3600" vehsPerHour="31.17" departLane="best" departPos="random" departSpeed="0" from="222682222#1" to="28231434"/>
  <flow id="car_222682222#1_23241821#0_00081d77" type="car" begin="0" end="3600" vehsPerHour="24.89" departLane="best" departPos="random" departSpeed="0" from="222682222#1" to="23241821#0"/>
  <flow id="car_222682222#1_198876042#0_00081d77" type="car" begin="0" end="3600" vehsPerHour="20.13" departLane="best" departPos="random" departSpeed="0" from="222682222#1" to="198876042#0"/>
  <flow id="motorcycle_222682222#1_193253427#0_00081d77" type="motorcycle" begin="0" end="3600" vehsPerHour="110.02" departLane="best" departPos="random" departSpeed="0" from="222682222#1" to="193253427#0"/>
  <flow id="motorcycle_222682222#1_198876043#0_00081d77" type="motorcycle" begin="0" end="3600" vehsPerHour="90.95" departLane="best" departPos="random" departSpeed="0" from="222682222#1" to="198876043#0"/>
  <flow id="motorcycle_222682222#1_28231434_00081d77" type="motorcycle" begin="0" end="3600" vehsPerHour="85.12" departLane="best" departPos="random" departSpeed="0" from="222682222#1" to="28231434"/>
  <flow id="motorcycle_222682222#1_23241821#0_00081d77" type="motorcycle" begin="0" end="3600" vehsPerHour="69.61" departLane="best" departPos="random" departSpeed="0" from="222682222#1" to="23241821#0"/>
  <flow id="motorcycle_222682222#1_198876042#0_00081d77" type="motorcycle" begin="0" end="3600" vehsPerHour="63.19" departLane="best" departPos="random" departSpeed="0" from="222682222#1" to="198876042#0"/>
  <flow id="car_193253433#2_198876043#0_00081d77" type="car" begin="0" end="3600" vehsPerHour="25.49" departLane="best" departPos="random" departSpeed="0" from="193253433#2" to="198876043#0"/>
  <flow id="car_193253433#2_28231434_00081d77" type="car" begin="0" end="3600" vehsPerHour="21.42" departLane="best" departPos="random" departSpeed="0" from="193253433#2" to="28231434"/>
  <flow id="car_193253433#2_23241821#0_00081d77" type="car" begin="0" end="3600" vehsPerHour="20.67" departLane="best" departPos="random" departSpeed="0" from="193253433#2" to="23241821#0"/>
  <flow id="car_193253433#2_198876042#0_00081d77" type="car" begin="0" end="3600" vehsPerHour="15.83" departLane="best" departPos="random" departSpeed="0" from="193253433#2" to="198876042#0"/>
  <flow id="car_193253433#2_193253427#0_00081d77" type="car" begin="0" end="3600" vehsPerHour="13.93" departLane="best" departPos="random" departSpeed="0" from="193253433#2" to="193253427#0"/>
  <flow id="motorcycle_193253433#2_198876043#0_00081d77" type="motorcycle" begin="0" end="3600" vehsPerHour="71.40" departLane="best" departPos="random" departSpeed="0" from="193253433#2" to="198876043#0"/>
  <flow id="motorcycle_193253433#2_28231434_00081d77" type="motorcycle" begin="0" end="3600" vehsPerHour="63.58" departLane="best" departPos="random" departSpeed="0" from="193253433#2" to="28231434"/>
  <flow id="motorcycle_193253433#2_23241821#0_00081d77" type="motorcycle" begin="0" end="3600" vehsPerHour="56.36" departLane="best" departPos="random" departSpeed="0" from="193253433#2" to="23241821#0"/>
  <flow id="motorcycle_193253433#2_198876042#0_00081d77" type="motorcycle" begin="0" end="3600" vehsPerHour="52.02" departLane="best" departPos="random" departSpeed="0" from="193253433#2" to="198876042#0"/>
  <flow id="motorcycle_193253433#2_193253427#0_00081d77" type="motorcycle" begin="0" end="3600" vehsPerHour="43.40" departLane="best" departPos="random" departSpeed="0" from="193253433#2" to="193253427#0"/>
  <flow id="car_198876045#1_28231434_00081d77" type="car" begin="0" end="3600" vehsPerHour="20.19" departLane="best" departPos="random" departSpeed="0" from="198876045#1" to="28231434"/>
  <flow id="car_198876045#1_23241821#0_00081d77" type="car" begin="0" end="3600" vehsPerHour="18.59" departLane="best" departPos="random" departSpeed="0" from="198876045#1" to="23241821#0"/>
  <flow id="car_198876045#1_198876042#0_00081d77" type="car" begin="0" end="3600" vehsPerHour="16.90" departLane="best" departPos="random" departSpeed="0" from="198876045#1" to="198876042#0"/>
  <flow id="car_198876045#1_193253427#0_00081d77" type="car" begin="0" end="3600" vehsPerHour="14.96" departLane="best" departPos="random" departSpeed="0" from="198876045#1" to="193253427#0"/>
  <flow id="car_198876045#1_198876043#2_00081d77" type="car" begin="0" end="3600" vehsPerHour="12.11" departLane="best" departPos="random" departSpeed="0" from="198876045#1" to="198876043#2"/>
  <flow id="motorcycle_198876045#1_28231434_00081d77" type="motorcycle" begin="0" end="3600" vehsPerHour="59.85" departLane="best" departPos="random" departSpeed="0" from="198876045#1" to="28231434"/>
  <flow id="motorcycle_198876045#1_23241821#0_00081d77" type="motorcycle" begin="0" end="3600" vehsPerHour="53.92" departLane="best" departPos="random" departSpeed="0" from="198876045#1" to="23241821#0"/>
  <flow id="motorcycle_198876045#1_198876042#0_00081d77" type="motorcycle" begin="0" end="3600" vehsPerHour="50.97" departLane="best" departPos="random" departSpeed="0" from="198876045#1" to="198876042#0"/>
  <flow id="motorcycle_198876045#1_193253427#0_00081d77" type="motorcycle" begin="0" end="3600" vehsPerHour="46.51" departLane="best" departPos="random" departSpeed="0" from="198876045#1" to="193253427#0"/>
  <flow id="motorcycle_198876045#1_198876043#2_00081d77" type="motorcycle" begin="0" end="3600" vehsPerHour="43.55" departLane="best" departPos="random" departSpeed="0" from="198876045#1" to="198876043#2"/>
  <flow id="car_-28231434_23241821#0_00081d77" type="car" begin="0" end="3600" vehsPerHour="14.34" departLane="best" departPos="random" departSpeed="0" from="-28231434" to="23241821#0"/>
  <flow id="car_-28231434_198876042#0_00081d77" type="car" begin="0" end="3600" vehsPerHour="12.34" departLane="best" departPos="random" departSpeed="0" from="-28231434" to="198876042#0"/>
  <flow id="car_-28231434_193253427#0_00081d77" type="car" begin="0" end="3600" vehsPerHour="10.78" departLane="best" departPos="random" departSpeed="0" from="-28231434" to="193253427#0"/>
  <flow id="car_-28231434_198876043#2_00081d77" type="car" begin="0" end="3600" vehsPerHour="10.33" departLane="best" departPos="random" departSpeed="0" from="-28231434" to="198876043#2"/>
  <flow id="car_-28231434_28231434_00081d77" type="car" begin="0" end="3600" vehsPerHour="8.64" departLane="best" departPos="random" departSpeed="0" from="-28231434" to="28231434"/>
  <flow id="motorcycle_-28231434_23241821#0_00081d77" type="motorcycle" begin="0" end="3600" vehsPerHour="42.12" departLane="best" departPos="random" departSpeed="0" from="-28231434" to="23241821#0"/>
  <flow id="motorcycle_-28231434_198876042#0_00081d77" type="motorcycle" begin="0" end="3600" vehsPerHour="37.37" departLane="best" departPos="random" departSpeed="0" from="-28231434" to="198876042#0"/>
  <flow id="motorcycle_-28231434_193253427#0_00081d77" type="motorcycle" begin="0" end="3600" vehsPerHour="31.57" departLane="best" departPos="random" departSpeed="0" from="-28231434" to="193253427#0"/>
  <flow id="motorcycle_-28231434_198876043#2_00081d77" type="motorcycle" begin="0" end="3600" vehsPerHour="28.11" departLane="best" departPos="random" departSpeed="0" from="-28231434" to="198876043#2"/>
  <flow id="motorcycle_-28231434_28231434_00081d77" type="motorcycle" begin="0" end="3600" vehsPerHour="23.89" departLane="best" departPos="random" departSpeed="0" from="-28231434" to="28231434"/>
  <flow id="car_-55029244#0_198876042#0_00081d77" type="car" begin="0" end="3600" vehsPerHour="16.01" departLane="best" departPos="random" departSpeed="0" from="-55029244#0" to="198876042#0"/>
  <flow id="car_-55029244#0_193253427#0_00081d77" type="car" begin="0" end="3600" vehsPerHour="13.93" departLane="best" departPos="random" departSpeed="0" from="-55029244#0" to="193253427#0"/>
  <flow id="car_-55029244#0_198876043#2_00081d77" type="car" begin="0" end="3600" vehsPerHour="12.47" departLane="best" departPos="random" departSpeed="0" from="-55029244#0" to="198876043#2"/>
  <flow id="car_-55029244#0_28231434_00081d77" type="car" begin="0" end="3600" vehsPerHour="10.70" departLane="best" departPos="random" departSpeed="0" from="-55029244#0" to="28231434"/>
  <flow id="car_-55029244#0_23241821#0_00081d77" type="car" begin="0" end="3600" vehsPerHour="8.49" departLane="best" departPos="random" departSpeed="0" from="-55029244#0" to="23241821#0"/>
  <flow id="motorcycle_-55029244#0_198876042#0_00081d77" type="motorcycle" begin="0" end="3600" vehsPerHour="47.35" departLane="best" departPos="random" departSpeed="0" from="-55029244#0" to="198876042#0"/>
  <flow id="motorcycle_-55029244#0_193253427#0_00081d77" type="motorcycle" begin="0" end="3600" vehsPerHour="43.01" departLane="best" departPos="random" departSpeed="0" from="-55029244#0" to="193253427#0"/>
  <flow id="motorcycle_-55029244#0_198876043#2_00081d77" type="motorcycle" begin="0" end="3600" vehsPerHour="38.58" departLane="best" departPos="random" departSpeed="0" from="-55029244#0" to="198876043#2"/>
  <flow id="motorcycle_-55029244#0_28231434_00081d77" type="motorcycle" begin="0" end="3600" vehsPerHour="32.56" departLane="best" departPos="random" departSpeed="0" from="-55029244#0" to="28231434"/>
  <flow id="motorcycle_-55029244#0_23241821#0_00081d77" type="motorcycle" begin="0" end="3600" vehsPerHour="29.74" departLane="best" departPos="random" departSpeed="0" from="-55029244#0" to="23241821#0"/>
  <flow id="car_34241530#0_198876042#0_00081d77" type="car" begin="0" end="3600" vehsPerHour="16.61" departLane="best" departPos="random" departSpeed="0" from="34241530#0" to="198876042#0"/>
  <flow id="car_34241530#0_193253427#0_00081d77" type="car" begin="0" end="3600" vehsPerHour="14.56" departLane="best" departPos="random" departSpeed="0" from="34241530#0" to="193253427#0"/>
  <flow id="car_34241530#0_198876043#2_00081d77" type="car" begin="0" end="3600" vehsPerHour="12.70" departLane="best" departPos="random" departSpeed="0" from="34241530#0" to="198876043#2"/>
  <flow id="car_34241530#0_28231434_00081d77" type="car" begin="0" end="3600" vehsPerHour="10.00" departLane="best" departPos="random" departSpeed="0" from="34241530#0" to="28231434"/>
  <flow id="car_34241530#0_23241821#0_00081d77" type="car" begin="0" end="3600" vehsPerHour="8.28" departLane="best" departPos="random" departSpeed="0" from="34241530#0" to="23241821#0"/>
  <flow id="motorcycle_34241530#0_198876042#0_00081d77" type="motorcycle" begin="0" end="3600" vehsPerHour="48.10" departLane="best" departPos="random" departSpeed="0" from="34241530#0" to="198876042#0"/>
  <flow id="motorcycle_34241530#0_193253427#0_00081d77" type="motorcycle" begin="0" end="3600" vehsPerHour="41.98" departLane="best" departPos="random" departSpeed="0" from="34241530#0" to="193253427#0"/>
  <flow id="motorcycle_34241530#0_198876043#2_00081d77" type="motorcycle" begin="0" end="3600" vehsPerHour="38.35" departLane="best" departPos="random" departSpeed="0" from="34241530#0" to="198876043#2"/>
  <flow id="motorcycle_34241530#0_28231434_00081d77" type="motorcycle" begin="0" end="3600" vehsPerHour="33.54" departLane="best" departPos="random" departSpeed="0" from="34241530#0" to="28231434"/>
  <flow id="motorcycle_34241530#0_23241821#0_00081d77" type="motorcycle" begin="0" end="3600" vehsPerHour="29.21" departLane="best" departPos="random" departSpeed="0" from="34241530#0" to="23241821#0"/>
  <flow id="truck_34241530#0_198876042#0_00081d77" type="truck" begin="0" end="3600" vehsPerHour="7.31" departLane="best" departPos="random" departSpeed="0" from="34241530#0" to="198876042#0"/>
</routes>
