<routes>
<vType id="car" vClass="passenger" accel="2.6" decel="4.5" sigma="0.5" length="5.0" maxSpeed="13.9"/>
<vType id="motorcycle" vClass="motorcycle" accel="3.0" decel="5.0" sigma="0.5" length="2.0" maxSpeed="14.0"/>
<vType id="truck" vClass="truck" accel="1.2" decel="3.5" sigma="0.5" length="12.0" maxSpeed="10.0"/>

  <flow id="car_222682222#1_193253427#0_000233e4" type="car" begin="0" end="3600" vehsPerHour="37.63" departLane="best" departPos="random" departSpeed="0" from="222682222#1" to="193253427#0"/>
  <flow id="car_222682222#1_198876043#0_000233e4" type="car" begin="0" end="3600" vehsPerHour="30.93" departLane="best" departPos="random" departSpeed="0" from="222682222#1" to="198876043#0"/>
  <flow id="car_222682222#1_28231434_000233e4" type="car" begin="0" end="3600" vehsPerHour="31.88" departLane="best" departPos="random" departSpeed="0" from="222682222#1" to="28231434"/>
  <flow id="car_222682222#1_23241821#0_000233e4" type="car" begin="0" end="3600" vehsPerHour="23.94" departLane="best" departPos="random" departSpeed="0" from="222682222#1" to="23241821#0"/>
  <flow id="car_222682222#1_198876042#0_000233e4" type="car" begin="0" end="3600" vehsPerHour="20.35" departLane="best" departPos="random" departSpeed="0" from="222682222#1" to="198876042#0"/>
  <flow id="motorcycle_222682222#1_193253427#0_000233e4" type="motorcycle" begin="0" end="3600" vehsPerHour="113.22" departLane="best" departPos="random" departSpeed="0" from="222682222#1" to="193253427#0"/>
  <flow id="motorcycle_222682222#1_198876043#0_000233e4" type="motorcycle" begin="0" end="3600" vehsPerHour="91.44" departLane="best" departPos="random" departSpeed="0" from="222682222#1" to="198876043#0"/>
  <flow id="motorcycle_222682222#1_28231434_000233e4" type="motorcycle" begin="0" end="3600" vehsPerHour="86.08" departLane="best" departPos="random" departSpeed="0" from="222682222#1" to="28231434"/>
  <flow id="motorcycle_222682222#1_23241821#0_000233e4" type="motorcycle" begin="0" end="3600" vehsPerHour="68.58" departLane="best" departPos="random" departSpeed="0" from="222682222#1" to="23241821#0"/>
  <flow id="motorcycle_222682222#1_198876042#0_000233e4" type="motorcycle" begin="0" end="3600" vehsPerHour="64.73" departLane="best" departPos="random" departSpeed="0" from="222682222#1" to="198876042#0"/>
  <flow id="car_193253433#2_198876043#0_000233e4" type="car" begin="0" end="3600" vehsPerHour="24.34" departLane="best" departPos="random" departSpeed="0" from="193253433#2" to="198876043#0"/>
  <flow id="car_193253433#2_28231434_000233e4" type="car" begin="0" end="3600" vehsPerHour="21.04" departLane="best" departPos="random" departSpeed="0" from="193253433#2" to="28231434"/>
  <flow id="car_193253433#2_23241821#0_000233e4" type="car" begin="0" end="3600" vehsPerHour="19.77" departLane="best" departPos="random" departSpeed="0" from="193253433#2" to="23241821#0"/>
  <flow id="car_193253433#2_198876042#0_000233e4" type="car" begin="0" end="3600" vehsPerHour="16.31" departLane="best" departPos="random" departSpeed="0" from="193253433#2" to="198876042#0"/>
  <flow id="car_193253433#2_193253427#0_000233e4" type="car" begin="0" end="3600" vehsPerHour="14.14" departLane="best" departPos="random" departSpeed="0" from="193253433#2" to="193253427#0"/>
  <flow id="motorcycle_193253433#2_198876043#0_000233e4" type="motorcycle" begin="0" end="3600" vehsPerHour="69.01" departLane="best" departPos="random" departSpeed="0" from="193253433#2" to="198876043#0"/>
  <flow id="motorcycle_193253433#2_28231434_000233e4" type="motorcycle" begin="0" end="3600" vehsPerHour="65.07" departLane="best" departPos="random" departSpeed="0" from="193253433#2" to="28231434"/>
  <flow id="motorcycle_193253433#2_23241821#0_000233e4" type="motorcycle" begin="0" end="3600" vehsPerHour="58.59" departLane="best" departPos="random" departSpeed="0" from="193253433#2" to="23241821#0"/>
  <flow id="motorcycle_193253433#2_198876042#0_000233e4" type="motorcycle" begin="0" end="3600" vehsPerHour="51.02" departLane="best" departPos="random" departSpeed="0" from="193253433#2" to="198876042#0"/>
  <flow id="motorcycle_193253433#2_193253427#0_000233e4" type="motorcycle" begin="0" end="3600" vehsPerHour="42.62" departLane="best" departPos="random" departSpeed="0" from="193253433#2" to="193253427#0"/>
  <flow id="car_198876045#1_28231434_000233e4" type="car" begin="0" end="3600" vehsPerHour="19.82" departLane="best" departPos="random" departSpeed="0" from="198876045#1" to="28231434"/>
  <flow id="car_198876045#1_23241821#0_000233e4" type="car" begin="0" end="3600" vehsPerHour="18.73" departLane="best" departPos="random" departSpeed="0" from="198876045#1" to="23241821#0"/>
  <flow id="car_198876045#1_198876042#0_000233e4" type="car" begin="0" end="3600" vehsPerHour="17.08" departLane="best" departPos="random" departSpeed="0" from="198876045#1" to="198876042#0"/>
  <flow id="car_198876045#1_193253427#0_000233e4" type="car" begin="0" end="3600" vehsPerHour="14.14" departLane="best" departPos="random" departSpeed="0" from="198876045#1" to="193253427#0"/>
  <flow id="car_198876045#1_198876043#2_000233e4" type="car" begin="0" end="3600" vehsPerHour="12.92" departLane="best" departPos="random" departSpeed="0" from="198876045#1" to="198876043#2"/>
  <flow id="motorcycle_198876045#1_28231434_000233e4" type="motorcycle" begin="0" end="3600" vehsPerHour="61.83" departLane="best" departPos="random" departSpeed="0" from="198876045#1" to="28231434"/>
  <flow id="motorcycle_198876045#1_23241821#0_000233e4" type="motorcycle" begin="0" end="3600" vehsPerHour="51.73" departLane="best" departPos="random" departSpeed="0" from="198876045#1" to="23241821#0"/>
  <flow id="motorcycle_198876045#1_198876042#0_000233e4" type="motorcycle" begin="0" end="3600" vehsPerHour="51.48" departLane="best" departPos="random" departSpeed="0" from="198876045#1" to="198876042#0"/>
  <flow id="motorcycle_198876045#1_193253427#0_000233e4" type="motorcycle" begin="0" end="3600" vehsPerHour="45.23" departLane="best" departPos="random" departSpeed="0" from="198876045#1" to="193253427#0"/>
  <flow id="motorcycle_198876045#1_198876043#2_000233e4" type="motorcycle" begin="0" end="3600" vehsPerHour="41.55" departLane="best" departPos="random" departSpeed="0" from="198876045#1" to="198876043#2"/>
  <flow id="car_-28231434_23241821#0_000233e4" type="car" begin="0" end="3600" vehsPerHour="14.20" departLane="best" departPos="random" departSpeed="0" from="-28231434" to="23241821#0"/>
  <flow id="car_-28231434_198876042#0_000233e4" type="car" begin="0" end="3600" vehsPerHour="12.71" departLane="best" departPos="random" departSpeed="0" from="-28231434" to="198876042#0"/>
  <flow id="car_-28231434_193253427#0_000233e4" type="car" begin="0" end="3600" vehsPerHour="10.56" departLane="best" departPos="random" departSpeed="0" from="-28231434" to="193253427#0"/>
  <flow id="car_-28231434_198876043#2_000233e4" type="car" begin="0" end="3600" vehsPerHour="9.95" departLane="best" departPos="random" departSpeed="0" from="-28231434" to="198876043#2"/>
  <flow id="car_-28231434_28231434_000233e4" type="car" begin="0" end="3600" vehsPerHour="8.33" departLane="best" departPos="random" departSpeed="0" from="-28231434" to="28231434"/>
  <flow id="motorcycle_-28231434_23241821#0_000233e4" type="motorcycle" begin="0" end="3600" vehsPerHour="41.33" departLane="best" departPos="random" departSpeed="0" from="-28231434" to="23241821#0"/>
  <flow id="motorcycle_-28231434_198876042#0_000233e4" type="motorcycle" begin="0" end="3600" vehsPerHour="37.26" departLane="best" departPos="random" departSpeed="0" from="-28231434" to="198876042#0"/>
  <flow id="motorcycle_-28231434_193253427#0_000233e4" type="motorcycle" begin="0" end="3600" vehsPerHour="33.57" departLane="best" departPos="random" departSpeed="0" from="-28231434" to="193253427#0"/>
  <flow id="motorcycle_-28231434_198876043#2_000233e4" type="motorcycle" begin="0" end="3600" vehsPerHour="28.50" departLane="best" departPos="random" departSpeed="0" from="-28231434" to="198876043#2"/>
  <flow id="motorcycle_-28231434_28231434_000233e4" type="motorcycle" begin="0" end="3600" vehsPerHour="24.67" departLane="best" departPos="random" departSpeed="0" from="-28231434" to="28231434"/>
  <flow id="car_-55029244#0_198876042#0_000233e4" type="car" begin="0" end="3600" vehsPerHour="17.15" departLane="best" departPos="random" departSpeed="0" from="-55029244#0" to="198876042#0"/>
  <flow id="car_-55029244#0_193253427#0_000233e4" type="car" begin="0" end="3600" vehsPerHour="14.85" departLane="best" departPos="random" departSpeed="0" from="-55029244#0" to="193253427#0"/>
  <flow id="car_-55029244#0_198876043#2_000233e4" type="car" begin="0" end="3600" vehsPerHour="11.90" departLane="best" departPos="random" departSpeed="0" from="-55029244#0" to="198876043#2"/>
  <flow id="car_-55029244#0_28231434_000233e4" type="car" begin="0" end="3600" vehsPerHour="9.90" departLane="best" departPos="random" departSpeed="0" from="-55029244#0" to="28231434"/>
  <flow id="car_-55029244#0_23241821#0_000233e4" type="car" begin="0" end="3600" vehsPerHour="8.10" departLane="best" departPos="random" departSpeed="0" from="-55029244#0" to="23241821#0"/>
  <flow id="motorcycle_-55029244#0_198876042#0_000233e4" type="motorcycle" begin="0" end="3600" vehsPerHour="48.78" departLane="best" departPos="random" departSpeed="0" from="-55029244#0" to="198876042#0"/>
  <flow id="motorcycle_-55029244#0_193253427#0_000233e4" type="motorcycle" begin="0" end="3600" vehsPerHour="42.75" departLane="best" departPos="random" departSpeed="0" from="-55029244#0" to="193253427#0"/>
  <flow id="motorcycle_-55029244#0_198876043#2_000233e4" type="motorcycle" begin="0" end="3600" vehsPerHour="36.86" departLane="best" departPos="random" departSpeed="0" from="-55029244#0" to="198876043#2"/>
  <flow id="motorcycle_-55029244#0_28231434_000233e4" type="motorcycle" begin="0" end="3600" vehsPerHour="32.14" departLane="best" departPos="random" departSpeed="0" from="-55029244#0" to="28231434"/>
  <flow id="motorcycle_-55029244#0_23241821#0_000233e4" type="motorcycle" begin="0" end="3600" vehsPerHour="28.21" departLane="best" departPos="random" departSpeed="0" from="-55029244#0" to="23241821#0"/>
  <flow id="car_34241530#0_198876042#0_000233e4" type="car" begin="0" end="3600" vehsPerHour="17.31" departLane="best" departPos="random" departSpeed="0" from="34241530#0" to="198876042#0"/>
  <flow id="car_34241530#0_193253427#0_000233e4" type="car" begin="0" end="3600" vehsPerHour="14.48" departLane="best" departPos="random" departSpeed="0" from="34241530#0" to="193253427#0"/>
  <flow id="car_34241530#0_198876043#2_000233e4" type="car" begin="0" end="3600" vehsPerHour="12.45" departLane="best" departPos="random" departSpeed="0" from="34241530#0" to="198876043#2"/>
  <flow id="car_34241530#0_28231434_000233e4" type="car" begin="0" end="3600" vehsPerHour="10.12" departLane="best" departPos="random" departSpeed="0" from="34241530#0" to="28231434"/>
  <flow id="car_34241530#0_23241821#0_000233e4" type="car" begin="0" end="3600" vehsPerHour="8.70" departLane="best" departPos="random" departSpeed="0" from="34241530#0" to="23241821#0"/>
  <flow id="motorcycle_34241530#0_198876042#0_000233e4" type="motorcycle" begin="0" end="3600" vehsPerHour="48.05" departLane="best" departPos="random" departSpeed="0" from="34241530#0" to="198876042#0"/>
  <flow id="motorcycle_34241530#0_193253427#0_000233e4" type="motorcycle" begin="0" end="3600" vehsPerHour="39.41" departLane="best" departPos="random" departSpeed="0" from="34241530#0" to="193253427#0"/>
  <flow id="motorcycle_34241530#0_198876043#2_000233e4" type="motorcycle" begin="0" end="3600" vehsPerHour="37.17" departLane="best" departPos="random" departSpeed="0" from="34241530#0" to="198876043#2"/>
  <flow id="motorcycle_34241530#0_28231434_000233e4" type="motorcycle" begin="0" end="3600" vehsPerHour="33.07" departLane="best" departPos="random" departSpeed="0" from="34241530#0" to="28231434"/>
  <flow id="motorcycle_34241530#0_23241821#0_000233e4" type="motorcycle" begin="0" end="3600" vehsPerHour="28.20" departLane="best" departPos="random" departSpeed="0" from="34241530#0" to="23241821#0"/>
  <flow id="truck_34241530#0_198876042#0_000233e4" type="truck" begin="0" end="3600" vehsPerHour="7.47" departLane="best" departPos="random" departSpeed="0" from="34241530#0" to="198876042#0"/>
</routes>
