<routes>
<vType id="car" vClass="passenger" accel="2.6" decel="4.5" sigma="0.5" length="5.0" maxSpeed="13.9"/>
<vType id="motorcycle" vClass="motorcycle" accel="3.0" decel="5.0" sigma="0.5" length="2.0" maxSpeed="14.0"/>
<vType id="truck" vClass="truck" accel="1.2" decel="3.5" sigma="0.5" length="12.0" maxSpeed="10.0"/>

  <flow id="car_222682222#1_193253427#0_0009ecb3" type="car" begin="0" end="3600" vehsPerHour="37.45" departLane="best" departPos="random" departSpeed="0" from="222682222#1" to="193253427#0"/>
  <flow id="car_222682222#1_198876043#0_0009ecb3" type="car" begin="0" end="3600" vehsPerHour="31.27" departLane="best" departPos="random" departSpeed="0" from="222682222#1" to="198876043#0"/>
  <flow id="car_222682222#1_28231434_0009ecb3" type="car" begin="0" end="3600" vehsPerHour="32.57" departLane="best" departPos="random" departSpeed="0" from="222682222#1" to="28231434"/>
  <flow id="car_222682222#1_23241821#0_0009ecb3" type="car" begin="0" end="3600" vehsPerHour="24.81" departLane="best" departPos="random" departSpeed="0" from="222682222#1" to="23241821#0"/>
  <flow id="car_222682222#1_198876042#0_0009ecb3" type="car" begin="0" end="3600" vehsPerHour="21.37" departLane="best" departPos="random" departSpeed="0" from="222682222#1" to="198876042#0"/>
  <flow id="motorcycle_222682222#1_193253427#0_0009ecb3" type="motorcycle" begin="0" end="3600" vehsPerHour="112.89" departLane="best" departPos="random" departSpeed="0" from="222682222#1" to="193253427#0"/>
  <flow id="motorcycle_222682222#1_198876043#0_0009ecb3" type="motorcycle" begin="0" end="3600" vehsPerHour="96.91" departLane="best" departPos="random" departSpeed="0" from="222682222#1" to="198876043#0"/>
  <flow id="motorcycle_222682222#1_28231434_0009ecb3" type="motorcycle" begin="0" end="3600" vehsPerHour="88.96" departLane="best" departPos="random" departSpeed="0" from="222682222#1" to="28231434"/>
  <flow id="motorcycle_222682222#1_23241821#0_0009ecb3" type="motorcycle" begin="0" end="3600" vehsPerHour="69.72" departLane="best" departPos="random" departSpeed="0" from="222682222#1" to="23241821#0"/>
  <flow id="motorcycle_222682222#1_198876042#0_0009ecb3" type="motorcycle" begin="0" end="3600" vehsPerHour="61.21" departLane="best" departPos="random" departSpeed="0" from="222682222#1" to="198876042#0"/>
  <flow id="car_193253433#2_198876043#0_0009ecb3" type="car" begin="0" end="3600" vehsPerHour="24.90" departLane="best" departPos="random" departSpeed="0" from="193253433#2" to="198876043#0"/>
  <flow id="car_193253433#2_28231434_0009ecb3" type="car" begin="0" end="3600" vehsPerHour="21.40" departLane="best" departPos="random" departSpeed="0" from="193253433#2" to="28231434"/>
  <flow id="car_193253433#2_23241821#0_0009ecb3" type="car" begin="0" end="3600" vehsPerHour="19.75" departLane="best" departPos="random" departSpeed="0" from="193253433#2" to="23241821#0"/>
  <flow id="car_193253433#2_198876042#0_0009ecb3" type="car" begin="0" end="3600" vehsPerHour="16.76" departLane="best" departPos="random" departSpeed="0" from="193253433#2" to="198876042#0"/>
  <flow id="car_193253433#2_193253427#0_0009ecb3" type="car" begin="0" end="3600" vehsPerHour="14.79" departLane="best" departPos="random" departSpeed="0" from="193253433#2" to="193253427#0"/>
  <flow id="motorcycle_193253433#2_198876043#0_0009ecb3" type="motorcycle" begin="0" end="3600" vehsPerHour="67.71" departLane="best" departPos="random" departSpeed="0" from="193253433#2" to="198876043#0"/>
  <flow id="motorcycle_193253433#2_28231434_0009ecb3" type="motorcycle" begin="0" end="3600" vehsPerHour="59.54" departLane="best" departPos="random" departSpeed="0" from="193253433#2" to="28231434"/>
  <flow id="motorcycle_193253433#2_23241821#0_0009ecb3" type="motorcycle" begin="0" end="3600" vehsPerHour="60.65" departLane="best" departPos="random" departSpeed="0" from="193253433#2" to="23241821#0"/>
  <flow id="motorcycle_193253433#2_198876042#0_0009ecb3" type="motorcycle" begin="0" end="3600" vehsPerHour="47.82" departLane="best" departPos="random" departSpeed="0" from="193253433#2" to="198876042#0"/>
  <flow id="motorcycle_193253433#2_193253427#0_0009ecb3" type="motorcycle" begin="0" end="3600" vehsPerHour="40.74" departLane="best" departPos="random" departSpeed="0" from="193253433#2" to="193253427#0"/>
  <flow id="car_198876045#1_28231434_0009ecb3" type="car" begin="0" end="3600" vehsPerHour="21.34" departLane="best" departPos="random" departSpeed="0" from="198876045#1" to="28231434"/>
  <flow id="car_198876045#1_23241821#0_0009ecb3" type="car" begin="0" end="3600" vehsPerHour="18.49" departLane="best" departPos="random" departSpeed="0" from="198876045#1" to="23241821#0"/>
  <flow id="car_198876045#1_198876042#0_0009ecb3" type="car" begin="0" end="3600" vehsPerHour="16.83" departLane="best" departPos="random" departSpeed="0" from="198876045#1" to="198876042#0"/>
  <flow id="car_198876045#1_193253427#0_0009ecb3" type="car" begin="0" end="3600" vehsPerHour="14.61" departLane="best" departPos="random" departSpeed="0" from="198876045#1" to="193253427#0"/>
  <flow id="car_198876045#1_198876043#2_0009ecb3" type="car" begin="0" end="3600" vehsPerHour="12.82" departLane="best" departPos="random" departSpeed="0" from="198876045#1" to="198876043#2"/>
  <flow id="motorcycle_198876045#1_28231434_0009ecb3" type="motorcycle" begin="0" end="3600" vehsPerHour="63.27" departLane="best" departPos="random" departSpeed="0" from="198876045#1" to="28231434"/>
  <flow id="motorcycle_198876045#1_23241821#0_0009ecb3" type="motorcycle" begin="0" end="3600" vehsPerHour="53.48" departLane="best" departPos="random" departSpeed="0" from="198876045#1" to="23241821#0"/>
  <flow id="motorcycle_198876045#1_198876042#0_0009ecb3" type="motorcycle" begin="0" end="3600" vehsPerHour="48.69" departLane="best" departPos="random" departSpeed="0" from="198876045#1" to="198876042#0"/>
  <flow id="motorcycle_198876045#1_193253427#0_0009ecb3" type="motorcycle" begin="0" end="3600" vehsPerHour="45.63" departLane="best" departPos="random" departSpeed="0" from="198876045#1" to="193253427#0"/>
  <flow id="motorcycle_198876045#1_198876043#2_0009ecb3" type="motorcycle" begin="0" end="3600" vehsPerHour="41.03" departLane="best" departPos="random" departSpeed="0" from="198876045#1" to="198876043#2"/>
  <flow id="car_-28231434_23241821#0_0009ecb3" type="car" begin="0" end="3600" vehsPerHour="13.80" departLane="best" departPos="random" departSpeed="0" from="-28231434" to="23241821#0"/>
  <flow id="car_-28231434_198876042#0_0009ecb3" type="car" begin="0" end="3600" vehsPerHour="13.01" departLane="best" departPos="random" departSpeed="0" from="-28231434" to="198876042#0"/>
  <flow id="car_-28231434_193253427#0_0009ecb3" type="car" begin="0" end="3600" vehsPerHour="10.60" departLane="best" departPos="random" departSpeed="0" from="-28231434" to="193253427#0"/>
  <flow id="car_-28231434_198876043#2_0009ecb3" type="car" begin="0" end="3600" vehsPerHour="10.49" departLane="best" departPos="random" departSpeed="0" from="-28231434" to="198876043#2"/>
  <flow id="car_-28231434_28231434_0009ecb3" type="car" begin="0" end="3600" vehsPerHour="8.50" departLane="best" departPos="random" departSpeed="0" from="-28231434" to="28231434"/>
  <flow id="motorcycle_-28231434_23241821#0_0009ecb3" type="motorcycle" begin="0" end="3600" vehsPerHour="41.50" departLane="best" departPos="random" departSpeed="0" from="-28231434" to="23241821#0"/>
  <flow id="motorcycle_-28231434_198876042#0_0009ecb3" type="motorcycle" begin="0" end="3600" vehsPerHour="38.32" departLane="best" departPos="random" departSpeed="0" from="-28231434" to="198876042#0"/>
  <flow id="motorcycle_-28231434_193253427#0_0009ecb3" type="motorcycle" begin="0" end="3600" vehsPerHour="31.53" departLane="best" departPos="random" departSpeed="0" from="-28231434" to="193253427#0"/>
  <flow id="motorcycle_-28231434_198876043#2_0009ecb3" type="motorcycle" begin="0" end="3600" vehsPerHour="29.49" departLane="best" departPos="random" departSpeed="0" from="-28231434" to="198876043#2"/>
  <flow id="motorcycle_-28231434_28231434_0009ecb3" type="motorcycle" begin="0" end="3600" vehsPerHour="24.08" departLane="best" departPos="random" departSpeed="0" from="-28231434" to="28231434"/>
  <flow id="car_-55029244#0_198876042#0_0009ecb3" type="car" begin="0" end="3600" vehsPerHour="16.03" departLane="best" departPos="random" departSpeed="0" from="-55029244#0" to="198876042#0"/>
  <flow id="car_-55029244#0_193253427#0_0009ecb3" type="car" begin="0" end="3600" vehsPerHour="15.16" departLane="best" departPos="random" departSpeed="0" from="-55029244#0" to="193253427#0"/>
  <flow id="car_-55029244#0_198876043#2_0009ecb3" type="car" begin="0" end="3600" vehsPerHour="11.93" departLane="best" departPos="random" departSpeed="0" from="-55029244#0" to="198876043#2"/>
  <flow id="car_-55029244#0_28231434_0009ecb3" type="car" begin="0" end="3600" vehsPerHour="9.88" departLane="best" departPos="random" departSpeed="0" from="-55029244#0" to="28231434"/>
  <flow id="car_-55029244#0_23241821#0_0009ecb3" type="car" begin="0" end="3600" vehsPerHour="8.04" departLane="best" departPos="random" departSpeed="0" from="-55029244#0" to="23241821#0"/>
  <flow id="motorcycle_-55029244#0_198876042#0_0009ecb3" type="motorcycle" begin="0" end="3600" vehsPerHour="52.01" departLane="best" departPos="random" departSpeed="0" from="-55029244#0" to="198876042#0"/>
  <flow id="motorcycle_-55029244#0_193253427#0_0009ecb3" type="motorcycle" begin="0" end="3600" vehsPerHour="41.34" departLane="best" departPos="random" departSpeed="0" from="-55029244#0" to="193253427#0"/>
  <flow id="motorcycle_-55029244#0_198876043#2_0009ecb3" type="motorcycle" begin="0" end="3600" vehsPerHour="38.29" departLane="best" departPos="random" departSpeed="0" from="-55029244#0" to="198876043#2"/>
  <flow id="motorcycle_-55029244#0_28231434_0009ecb3" type="motorcycle" begin="0" end="3600" vehsPerHour="32.13" departLane="best" departPos="random" departSpeed="0" from="-55029244#0" to="28231434"/>
  <flow id="motorcycle_-55029244#0_23241821#0_0009ecb3" type="motorcycle" begin="0" end="3600" vehsPerHour="27.59" departLane="best" departPos="random" departSpeed="0" from="-55029244#0" to="23241821#0"/>
  <flow id="car_34241530#0_198876042#0_0009ecb3" type="car" begin="0" end="3600" vehsPerHour="15.93" departLane="best" departPos="random" departSpeed="0" from="34241530#0" to="198876042#0"/>
  <flow id="car_34241530#0_193253427#0_0009ecb3" type="car" begin="0" end="3600" vehsPerHour="14.97" departLane="best" departPos="random" departSpeed="0" from="34241530#0" to="193253427#0"/>
  <flow id="car_34241530#0_198876043#2_0009ecb3" type="car" begin="0" end="3600" vehsPerHour="13.02" departLane="best" departPos="random" departSpeed="0" from="34241530#0" to="198876043#2"/>
  <flow id="car_34241530#0_28231434_0009ecb3" type="car" begin="0" end="3600" vehsPerHour="9.86" departLane="best" departPos="random" departSpeed="0" from="34241530#0" to="28231434"/>
  <flow id="car_34241530#0_23241821#0_0009ecb3" type="car" begin="0" end="3600" vehsPerHour="8.30" departLane="best" departPos="random" departSpeed="0" from="34241530#0" to="23241821#0"/>
  <flow id="motorcycle_34241530#0_198876042#0_0009ecb3" type="motorcycle" begin="0" end="3600" vehsPerHour="50.56" departLane="best" departPos="random" departSpeed="0" from="34241530#0" to="198876042#0"/>
  <flow id="motorcycle_34241530#0_193253427#0_0009ecb3" type="motorcycle" begin="0" end="3600" vehsPerHour="40.95" departLane="best" departPos="random" departSpeed="0" from="34241530#0" to="193253427#0"/>
  <flow id="motorcycle_34241530#0_198876043#2_0009ecb3" type="motorcycle" begin="0" end="3600" vehsPerHour="36.58" departLane="best" departPos="random" departSpeed="0" from="34241530#0" to="198876043#2"/>
  <flow id="motorcycle_34241530#0_28231434_0009ecb3" type="motorcycle" begin="0" end="3600" vehsPerHour="31.79" departLane="best" departPos="random" departSpeed="0" from="34241530#0" to="28231434"/>
  <flow id="motorcycle_34241530#0_23241821#0_0009ecb3" type="motorcycle" begin="0" end="3600" vehsPerHour="30.02" departLane="best" departPos="random" departSpeed="0" from="34241530#0" to="23241821#0"/>
  <flow id="truck_34241530#0_198876042#0_0009ecb3" type="truck" begin="0" end="3600" vehsPerHour="7.41" departLane="best" departPos="random" departSpeed="0" from="34241530#0" to="198876042#0"/>
</routes>
